New Line.L1 bus1=1 bus2=2 r1=0.092200 x1=0.047000 phases=1
New Line.L2 bus1=2 bus2=3 r1=0.493000 x1=0.251100 phases=1
New Line.L3 bus1=3 bus2=4 r1=0.366000 x1=0.186400 phases=1
New Line.L4 bus1=4 bus2=5 r1=0.381100 x1=0.194100 phases=1
New Line.L5 bus1=5 bus2=6 r1=0.819000 x1=0.707000 phases=1
New Line.L6 bus1=6 bus2=7 r1=0.187200 x1=0.618800 phases=1
New Line.L7 bus1=7 bus2=8 r1=0.711400 x1=0.235100 phases=1
New Line.L8 bus1=8 bus2=9 r1=1.030000 x1=0.740000 phases=1
New Line.L9 bus1=9 bus2=10 r1=1.044000 x1=0.740000 phases=1
New Line.L10 bus1=10 bus2=11 r1=0.196600 x1=0.065000 phases=1
New Line.L11 bus1=11 bus2=12 r1=0.374400 x1=0.123800 phases=1
New Line.L12 bus1=12 bus2=13 r1=1.468000 x1=1.155000 phases=1
New Line.L13 bus1=13 bus2=14 r1=0.541600 x1=0.712900 phases=1
New Line.L14 bus1=14 bus2=15 r1=0.591000 x1=0.526000 phases=1
New Line.L15 bus1=15 bus2=16 r1=0.746300 x1=0.545000 phases=1
New Line.L16 bus1=16 bus2=17 r1=1.289000 x1=1.721000 phases=1
New Line.L17 bus1=17 bus2=18 r1=0.732000 x1=0.574000 phases=1
New Line.L18 bus1=2 bus2=19 r1=0.164000 x1=0.156500 phases=1
New Line.L19 bus1=19 bus2=20 r1=1.504200 x1=1.355400 phases=1
New Line.L20 bus1=20 bus2=21 r1=0.409500 x1=0.478400 phases=1
New Line.L21 bus1=21 bus2=22 r1=0.708900 x1=0.937300 phases=1
New Line.L22 bus1=3 bus2=23 r1=0.451200 x1=0.308300 phases=1
New Line.L23 bus1=23 bus2=24 r1=0.898000 x1=0.709100 phases=1
New Line.L24 bus1=24 bus2=25 r1=0.896000 x1=0.701100 phases=1
New Line.L25 bus1=6 bus2=26 r1=0.203000 x1=0.103400 phases=1
New Line.L26 bus1=26 bus2=27 r1=0.284200 x1=0.144700 phases=1
New Line.L27 bus1=27 bus2=28 r1=1.059000 x1=0.933700 phases=1
New Line.L28 bus1=28 bus2=29 r1=0.804200 x1=0.700600 phases=1
New Line.L29 bus1=29 bus2=30 r1=0.507500 x1=0.258500 phases=1
New Line.L30 bus1=30 bus2=31 r1=0.974400 x1=0.963000 phases=1
New Line.L31 bus1=31 bus2=32 r1=0.310500 x1=0.361900 phases=1
New Line.L32 bus1=32 bus2=33 r1=0.341000 x1=0.530200 phases=1
!New Line.L33 bus1=2 bus2=34 r1=0.014300 x1=0.035700 phases=1
New Line.L34 bus1=34 bus2=35 r1=0.006900 x1=0.001800 phases=1
New Line.L35 bus1=35 bus2=36 r1=0.006900 x1=0.001800 phases=1
New Line.L36 bus1=36 bus2=37 r1=0.006900 x1=0.001800 phases=1
New Line.L37 bus1=37 bus2=38 r1=0.006900 x1=0.001800 phases=1
New Line.L38 bus1=38 bus2=39 r1=0.006900 x1=0.001800 phases=1
New Line.L39 bus1=39 bus2=40 r1=0.006900 x1=0.001800 phases=1
New Line.L40 bus1=35 bus2=41 r1=0.011000 x1=0.001700 phases=1
New Line.L41 bus1=36 bus2=42 r1=0.011000 x1=0.001700 phases=1
New Line.L42 bus1=37 bus2=43 r1=0.011000 x1=0.001700 phases=1
New Line.L43 bus1=38 bus2=44 r1=0.011000 x1=0.001700 phases=1
New Line.L44 bus1=39 bus2=45 r1=0.011000 x1=0.001700 phases=1
New Line.L45 bus1=40 bus2=46 r1=0.011000 x1=0.001700 phases=1
New Line.L46 bus1=35 bus2=47 r1=0.011000 x1=0.001700 phases=1
New Line.L47 bus1=36 bus2=48 r1=0.011000 x1=0.001700 phases=1
New Line.L48 bus1=37 bus2=49 r1=0.011000 x1=0.001700 phases=1
New Line.L49 bus1=38 bus2=50 r1=0.011000 x1=0.001700 phases=1
New Line.L50 bus1=39 bus2=51 r1=0.011000 x1=0.001700 phases=1
New Line.L51 bus1=40 bus2=52 r1=0.011000 x1=0.001700 phases=1
!New Line.L52 bus1=3 bus2=53 r1=0.011000 x1=0.001700 phases=1
New Line.L53 bus1=53 bus2=54 r1=0.006900 x1=0.001800 phases=1
New Line.L54 bus1=54 bus2=55 r1=0.006900 x1=0.001800 phases=1
New Line.L55 bus1=55 bus2=56 r1=0.006900 x1=0.001800 phases=1
New Line.L56 bus1=56 bus2=57 r1=0.006900 x1=0.001800 phases=1
New Line.L57 bus1=57 bus2=58 r1=0.006900 x1=0.001800 phases=1
New Line.L58 bus1=54 bus2=59 r1=0.011000 x1=0.001700 phases=1
New Line.L59 bus1=55 bus2=60 r1=0.011000 x1=0.001700 phases=1
New Line.L60 bus1=56 bus2=61 r1=0.011000 x1=0.001700 phases=1
New Line.L61 bus1=57 bus2=62 r1=0.011000 x1=0.001700 phases=1
New Line.L62 bus1=58 bus2=63 r1=0.011000 x1=0.001700 phases=1
New Line.L63 bus1=54 bus2=64 r1=0.011000 x1=0.001700 phases=1
New Line.L64 bus1=55 bus2=65 r1=0.011000 x1=0.001700 phases=1
New Line.L65 bus1=56 bus2=66 r1=0.011000 x1=0.001700 phases=1
New Line.L66 bus1=57 bus2=67 r1=0.011000 x1=0.001700 phases=1
New Line.L67 bus1=58 bus2=68 r1=0.011000 x1=0.001700 phases=1
!New Line.L68 bus1=4 bus2=69 r1=0.014300 x1=0.035700 phases=1
New Line.L69 bus1=69 bus2=70 r1=0.006900 x1=0.001800 phases=1
New Line.L70 bus1=70 bus2=71 r1=0.006900 x1=0.001800 phases=1
New Line.L71 bus1=71 bus2=72 r1=0.006900 x1=0.001800 phases=1
New Line.L72 bus1=72 bus2=73 r1=0.006900 x1=0.001800 phases=1
New Line.L73 bus1=70 bus2=74 r1=0.011000 x1=0.001700 phases=1
New Line.L74 bus1=71 bus2=75 r1=0.011000 x1=0.001700 phases=1
New Line.L75 bus1=72 bus2=76 r1=0.011000 x1=0.001700 phases=1
New Line.L76 bus1=73 bus2=77 r1=0.011000 x1=0.001700 phases=1
New Line.L77 bus1=70 bus2=78 r1=0.011000 x1=0.001700 phases=1
New Line.L78 bus1=71 bus2=79 r1=0.011000 x1=0.001700 phases=1
New Line.L79 bus1=72 bus2=80 r1=0.011000 x1=0.001700 phases=1
New Line.L80 bus1=73 bus2=81 r1=0.011000 x1=0.001700 phases=1
!New Line.L81 bus1=5 bus2=82 r1=0.014300 x1=0.035700 phases=1
New Line.L82 bus1=82 bus2=83 r1=0.006900 x1=0.001800 phases=1
New Line.L83 bus1=83 bus2=84 r1=0.006900 x1=0.001800 phases=1
New Line.L84 bus1=84 bus2=85 r1=0.006900 x1=0.001800 phases=1
New Line.L85 bus1=85 bus2=86 r1=0.006900 x1=0.001800 phases=1
New Line.L86 bus1=83 bus2=87 r1=0.011000 x1=0.001700 phases=1
New Line.L87 bus1=84 bus2=88 r1=0.011000 x1=0.001700 phases=1
New Line.L88 bus1=85 bus2=89 r1=0.011000 x1=0.001700 phases=1
New Line.L89 bus1=86 bus2=90 r1=0.011000 x1=0.001700 phases=1
New Line.L90 bus1=83 bus2=91 r1=0.011000 x1=0.001700 phases=1
New Line.L91 bus1=84 bus2=92 r1=0.011000 x1=0.001700 phases=1
New Line.L92 bus1=85 bus2=93 r1=0.011000 x1=0.001700 phases=1
New Line.L93 bus1=86 bus2=94 r1=0.011000 x1=0.001700 phases=1
!New Line.L94 bus1=6 bus2=95 r1=0.014300 x1=0.035700 phases=1
New Line.L95 bus1=95 bus2=96 r1=0.006900 x1=0.001800 phases=1
New Line.L96 bus1=96 bus2=97 r1=0.006900 x1=0.001800 phases=1
New Line.L97 bus1=97 bus2=98 r1=0.006900 x1=0.001800 phases=1
New Line.L98 bus1=98 bus2=99 r1=0.006900 x1=0.001800 phases=1
New Line.L99 bus1=96 bus2=100 r1=0.011000 x1=0.001700 phases=1
New Line.L100 bus1=97 bus2=101 r1=0.011000 x1=0.001700 phases=1
New Line.L101 bus1=98 bus2=102 r1=0.011000 x1=0.001700 phases=1
New Line.L102 bus1=99 bus2=103 r1=0.011000 x1=0.001700 phases=1
New Line.L103 bus1=96 bus2=104 r1=0.011000 x1=0.001700 phases=1
New Line.L104 bus1=97 bus2=105 r1=0.011000 x1=0.001700 phases=1
New Line.L105 bus1=98 bus2=106 r1=0.011000 x1=0.001700 phases=1
New Line.L106 bus1=99 bus2=107 r1=0.011000 x1=0.001700 phases=1
!New Line.L107 bus1=7 bus2=108 r1=0.014300 x1=0.035700 phases=1
New Line.L108 bus1=108 bus2=109 r1=0.006900 x1=0.001800 phases=1
New Line.L109 bus1=109 bus2=110 r1=0.006900 x1=0.001800 phases=1
New Line.L110 bus1=110 bus2=111 r1=0.006900 x1=0.001800 phases=1
New Line.L111 bus1=111 bus2=112 r1=0.006900 x1=0.001800 phases=1
New Line.L112 bus1=112 bus2=113 r1=0.006900 x1=0.001800 phases=1
New Line.L113 bus1=113 bus2=114 r1=0.006900 x1=0.001800 phases=1
New Line.L114 bus1=109 bus2=115 r1=0.011000 x1=0.001700 phases=1
New Line.L115 bus1=110 bus2=116 r1=0.011000 x1=0.001700 phases=1
New Line.L116 bus1=111 bus2=117 r1=0.011000 x1=0.001700 phases=1
New Line.L117 bus1=112 bus2=118 r1=0.011000 x1=0.001700 phases=1
New Line.L118 bus1=113 bus2=119 r1=0.011000 x1=0.001700 phases=1
New Line.L119 bus1=114 bus2=120 r1=0.011000 x1=0.001700 phases=1
New Line.L120 bus1=109 bus2=121 r1=0.011000 x1=0.001700 phases=1
New Line.L121 bus1=110 bus2=122 r1=0.011000 x1=0.001700 phases=1
New Line.L122 bus1=111 bus2=123 r1=0.011000 x1=0.001700 phases=1
New Line.L123 bus1=112 bus2=124 r1=0.011000 x1=0.001700 phases=1
New Line.L124 bus1=113 bus2=125 r1=0.011000 x1=0.001700 phases=1
New Line.L125 bus1=114 bus2=126 r1=0.011000 x1=0.001700 phases=1
!New Line.L126 bus1=7 bus2=127 r1=0.014300 x1=0.035700 phases=1
New Line.L127 bus1=127 bus2=128 r1=0.006900 x1=0.001800 phases=1
New Line.L128 bus1=128 bus2=129 r1=0.006900 x1=0.001800 phases=1
New Line.L129 bus1=129 bus2=130 r1=0.006900 x1=0.001800 phases=1
New Line.L130 bus1=130 bus2=131 r1=0.006900 x1=0.001800 phases=1
New Line.L131 bus1=131 bus2=132 r1=0.006900 x1=0.001800 phases=1
New Line.L132 bus1=132 bus2=133 r1=0.006900 x1=0.001800 phases=1
New Line.L133 bus1=128 bus2=134 r1=0.011000 x1=0.001700 phases=1
New Line.L134 bus1=129 bus2=135 r1=0.011000 x1=0.001700 phases=1
New Line.L135 bus1=130 bus2=136 r1=0.011000 x1=0.001700 phases=1
New Line.L136 bus1=131 bus2=137 r1=0.011000 x1=0.001700 phases=1
New Line.L137 bus1=132 bus2=138 r1=0.011000 x1=0.001700 phases=1
New Line.L138 bus1=133 bus2=139 r1=0.011000 x1=0.001700 phases=1
New Line.L139 bus1=128 bus2=140 r1=0.011000 x1=0.001700 phases=1
New Line.L140 bus1=129 bus2=141 r1=0.011000 x1=0.001700 phases=1
New Line.L141 bus1=130 bus2=142 r1=0.011000 x1=0.001700 phases=1
New Line.L142 bus1=131 bus2=143 r1=0.011000 x1=0.001700 phases=1
New Line.L143 bus1=132 bus2=144 r1=0.011000 x1=0.001700 phases=1
New Line.L144 bus1=133 bus2=145 r1=0.011000 x1=0.001700 phases=1
!New Line.L145 bus1=8 bus2=146 r1=0.014300 x1=0.035700 phases=1
New Line.L146 bus1=146 bus2=147 r1=0.006900 x1=0.001800 phases=1
New Line.L147 bus1=147 bus2=148 r1=0.006900 x1=0.001800 phases=1
New Line.L148 bus1=148 bus2=149 r1=0.006900 x1=0.001800 phases=1
New Line.L149 bus1=149 bus2=150 r1=0.006900 x1=0.001800 phases=1
New Line.L150 bus1=150 bus2=151 r1=0.006900 x1=0.001800 phases=1
New Line.L151 bus1=151 bus2=152 r1=0.006900 x1=0.001800 phases=1
New Line.L152 bus1=147 bus2=153 r1=0.011000 x1=0.001700 phases=1
New Line.L153 bus1=148 bus2=154 r1=0.011000 x1=0.001700 phases=1
New Line.L154 bus1=149 bus2=155 r1=0.011000 x1=0.001700 phases=1
New Line.L155 bus1=150 bus2=156 r1=0.011000 x1=0.001700 phases=1
New Line.L156 bus1=151 bus2=157 r1=0.011000 x1=0.001700 phases=1
New Line.L157 bus1=152 bus2=158 r1=0.011000 x1=0.001700 phases=1
New Line.L158 bus1=147 bus2=159 r1=0.011000 x1=0.001700 phases=1
New Line.L159 bus1=148 bus2=160 r1=0.011000 x1=0.001700 phases=1
New Line.L160 bus1=149 bus2=161 r1=0.011000 x1=0.001700 phases=1
New Line.L161 bus1=150 bus2=162 r1=0.011000 x1=0.001700 phases=1
New Line.L162 bus1=151 bus2=163 r1=0.011000 x1=0.001700 phases=1
New Line.L163 bus1=152 bus2=164 r1=0.011000 x1=0.001700 phases=1
!New Line.L164 bus1=8 bus2=165 r1=0.014300 x1=0.035700 phases=1
New Line.L165 bus1=165 bus2=166 r1=0.006900 x1=0.001800 phases=1
New Line.L166 bus1=166 bus2=167 r1=0.006900 x1=0.001800 phases=1
New Line.L167 bus1=167 bus2=168 r1=0.006900 x1=0.001800 phases=1
New Line.L168 bus1=168 bus2=169 r1=0.006900 x1=0.001800 phases=1
New Line.L169 bus1=169 bus2=170 r1=0.006900 x1=0.001800 phases=1
New Line.L170 bus1=170 bus2=171 r1=0.006900 x1=0.001800 phases=1
New Line.L171 bus1=166 bus2=172 r1=0.011000 x1=0.001700 phases=1
New Line.L172 bus1=167 bus2=173 r1=0.011000 x1=0.001700 phases=1
New Line.L173 bus1=168 bus2=174 r1=0.011000 x1=0.001700 phases=1
New Line.L174 bus1=169 bus2=175 r1=0.011000 x1=0.001700 phases=1
New Line.L175 bus1=170 bus2=176 r1=0.011000 x1=0.001700 phases=1
New Line.L176 bus1=171 bus2=177 r1=0.011000 x1=0.001700 phases=1
New Line.L177 bus1=166 bus2=178 r1=0.011000 x1=0.001700 phases=1
New Line.L178 bus1=167 bus2=179 r1=0.011000 x1=0.001700 phases=1
New Line.L179 bus1=168 bus2=180 r1=0.011000 x1=0.001700 phases=1
New Line.L180 bus1=169 bus2=181 r1=0.011000 x1=0.001700 phases=1
New Line.L181 bus1=170 bus2=182 r1=0.011000 x1=0.001700 phases=1
New Line.L182 bus1=171 bus2=183 r1=0.011000 x1=0.001700 phases=1
!New Line.L183 bus1=9 bus2=184 r1=0.014300 x1=0.035700 phases=1
New Line.L184 bus1=184 bus2=185 r1=0.006900 x1=0.001800 phases=1
New Line.L185 bus1=185 bus2=186 r1=0.006900 x1=0.001800 phases=1
New Line.L186 bus1=186 bus2=187 r1=0.006900 x1=0.001800 phases=1
New Line.L187 bus1=187 bus2=188 r1=0.006900 x1=0.001800 phases=1
New Line.L188 bus1=185 bus2=189 r1=0.011000 x1=0.001700 phases=1
New Line.L189 bus1=186 bus2=190 r1=0.011000 x1=0.001700 phases=1
New Line.L190 bus1=187 bus2=191 r1=0.011000 x1=0.001700 phases=1
New Line.L191 bus1=188 bus2=192 r1=0.011000 x1=0.001700 phases=1
New Line.L192 bus1=185 bus2=193 r1=0.011000 x1=0.001700 phases=1
New Line.L193 bus1=186 bus2=194 r1=0.011000 x1=0.001700 phases=1
New Line.L194 bus1=187 bus2=195 r1=0.011000 x1=0.001700 phases=1
New Line.L195 bus1=188 bus2=196 r1=0.011000 x1=0.001700 phases=1
!New Line.L196 bus1=10 bus2=197 r1=0.014300 x1=0.035700 phases=1
New Line.L197 bus1=197 bus2=198 r1=0.006900 x1=0.001800 phases=1
New Line.L198 bus1=198 bus2=199 r1=0.006900 x1=0.001800 phases=1
New Line.L199 bus1=199 bus2=200 r1=0.006900 x1=0.001800 phases=1
New Line.L200 bus1=200 bus2=201 r1=0.006900 x1=0.001800 phases=1
New Line.L201 bus1=198 bus2=202 r1=0.011000 x1=0.001700 phases=1
New Line.L202 bus1=199 bus2=203 r1=0.011000 x1=0.001700 phases=1
New Line.L203 bus1=200 bus2=204 r1=0.011000 x1=0.001700 phases=1
New Line.L204 bus1=201 bus2=205 r1=0.011000 x1=0.001700 phases=1
New Line.L205 bus1=198 bus2=206 r1=0.011000 x1=0.001700 phases=1
New Line.L206 bus1=199 bus2=207 r1=0.011000 x1=0.001700 phases=1
New Line.L207 bus1=200 bus2=208 r1=0.011000 x1=0.001700 phases=1
New Line.L208 bus1=201 bus2=209 r1=0.011000 x1=0.001700 phases=1
!New Line.L209 bus1=11 bus2=210 r1=0.014300 x1=0.035700 phases=1
New Line.L210 bus1=210 bus2=211 r1=0.006900 x1=0.001800 phases=1
New Line.L211 bus1=211 bus2=212 r1=0.006900 x1=0.001800 phases=1
New Line.L212 bus1=212 bus2=213 r1=0.006900 x1=0.001800 phases=1
New Line.L213 bus1=211 bus2=214 r1=0.011000 x1=0.001700 phases=1
New Line.L214 bus1=212 bus2=215 r1=0.011000 x1=0.001700 phases=1
New Line.L215 bus1=213 bus2=216 r1=0.011000 x1=0.001700 phases=1
New Line.L216 bus1=211 bus2=217 r1=0.011000 x1=0.001700 phases=1
New Line.L217 bus1=212 bus2=218 r1=0.011000 x1=0.001700 phases=1
New Line.L218 bus1=213 bus2=219 r1=0.011000 x1=0.001700 phases=1
!New Line.L219 bus1=12 bus2=220 r1=0.014300 x1=0.035700 phases=1
New Line.L220 bus1=220 bus2=221 r1=0.006900 x1=0.001800 phases=1
New Line.L221 bus1=221 bus2=222 r1=0.006900 x1=0.001800 phases=1
New Line.L222 bus1=222 bus2=223 r1=0.006900 x1=0.001800 phases=1
New Line.L223 bus1=223 bus2=224 r1=0.006900 x1=0.001800 phases=1
New Line.L224 bus1=221 bus2=225 r1=0.011000 x1=0.001700 phases=1
New Line.L225 bus1=222 bus2=226 r1=0.011000 x1=0.001700 phases=1
New Line.L226 bus1=223 bus2=227 r1=0.011000 x1=0.001700 phases=1
New Line.L227 bus1=224 bus2=228 r1=0.011000 x1=0.001700 phases=1
New Line.L228 bus1=221 bus2=229 r1=0.011000 x1=0.001700 phases=1
New Line.L229 bus1=222 bus2=230 r1=0.011000 x1=0.001700 phases=1
New Line.L230 bus1=223 bus2=231 r1=0.011000 x1=0.001700 phases=1
New Line.L231 bus1=224 bus2=232 r1=0.011000 x1=0.001700 phases=1
!New Line.L232 bus1=13 bus2=233 r1=0.014300 x1=0.035700 phases=1
New Line.L233 bus1=233 bus2=234 r1=0.006900 x1=0.001800 phases=1
New Line.L234 bus1=234 bus2=235 r1=0.006900 x1=0.001800 phases=1
New Line.L235 bus1=235 bus2=236 r1=0.006900 x1=0.001800 phases=1
New Line.L236 bus1=236 bus2=237 r1=0.006900 x1=0.001800 phases=1
New Line.L237 bus1=234 bus2=238 r1=0.011000 x1=0.001700 phases=1
New Line.L238 bus1=235 bus2=239 r1=0.011000 x1=0.001700 phases=1
New Line.L239 bus1=236 bus2=240 r1=0.011000 x1=0.001700 phases=1
New Line.L240 bus1=237 bus2=241 r1=0.011000 x1=0.001700 phases=1
New Line.L241 bus1=234 bus2=242 r1=0.011000 x1=0.001700 phases=1
New Line.L242 bus1=235 bus2=243 r1=0.011000 x1=0.001700 phases=1
New Line.L243 bus1=236 bus2=244 r1=0.011000 x1=0.001700 phases=1
New Line.L244 bus1=237 bus2=245 r1=0.011000 x1=0.001700 phases=1
!New Line.L245 bus1=14 bus2=246 r1=0.014300 x1=0.035700 phases=1
New Line.L246 bus1=246 bus2=247 r1=0.006900 x1=0.001800 phases=1
New Line.L247 bus1=247 bus2=248 r1=0.006900 x1=0.001800 phases=1
New Line.L248 bus1=248 bus2=249 r1=0.006900 x1=0.001800 phases=1
New Line.L249 bus1=249 bus2=250 r1=0.006900 x1=0.001800 phases=1
New Line.L250 bus1=250 bus2=251 r1=0.006900 x1=0.001800 phases=1
New Line.L251 bus1=251 bus2=252 r1=0.006900 x1=0.001800 phases=1
New Line.L252 bus1=247 bus2=253 r1=0.011000 x1=0.001700 phases=1
New Line.L253 bus1=248 bus2=254 r1=0.011000 x1=0.001700 phases=1
New Line.L254 bus1=249 bus2=255 r1=0.011000 x1=0.001700 phases=1
New Line.L255 bus1=250 bus2=256 r1=0.011000 x1=0.001700 phases=1
New Line.L256 bus1=251 bus2=257 r1=0.011000 x1=0.001700 phases=1
New Line.L257 bus1=252 bus2=258 r1=0.011000 x1=0.001700 phases=1
New Line.L258 bus1=247 bus2=259 r1=0.011000 x1=0.001700 phases=1
New Line.L259 bus1=248 bus2=260 r1=0.011000 x1=0.001700 phases=1
New Line.L260 bus1=249 bus2=261 r1=0.011000 x1=0.001700 phases=1
New Line.L261 bus1=250 bus2=262 r1=0.011000 x1=0.001700 phases=1
New Line.L262 bus1=251 bus2=263 r1=0.011000 x1=0.001700 phases=1
New Line.L263 bus1=252 bus2=264 r1=0.011000 x1=0.001700 phases=1
!New Line.L264 bus1=15 bus2=265 r1=0.014300 x1=0.035700 phases=1
New Line.L265 bus1=265 bus2=266 r1=0.006900 x1=0.001800 phases=1
New Line.L266 bus1=266 bus2=267 r1=0.006900 x1=0.001800 phases=1
New Line.L267 bus1=267 bus2=268 r1=0.006900 x1=0.001800 phases=1
New Line.L268 bus1=268 bus2=269 r1=0.006900 x1=0.001800 phases=1
New Line.L269 bus1=266 bus2=270 r1=0.011000 x1=0.001700 phases=1
New Line.L270 bus1=267 bus2=271 r1=0.011000 x1=0.001700 phases=1
New Line.L271 bus1=268 bus2=272 r1=0.011000 x1=0.001700 phases=1
New Line.L272 bus1=269 bus2=273 r1=0.011000 x1=0.001700 phases=1
New Line.L273 bus1=266 bus2=274 r1=0.011000 x1=0.001700 phases=1
New Line.L274 bus1=267 bus2=275 r1=0.011000 x1=0.001700 phases=1
New Line.L275 bus1=268 bus2=276 r1=0.011000 x1=0.001700 phases=1
New Line.L276 bus1=269 bus2=277 r1=0.011000 x1=0.001700 phases=1
!New Line.L277 bus1=16 bus2=278 r1=0.014300 x1=0.035700 phases=1
New Line.L278 bus1=278 bus2=279 r1=0.006900 x1=0.001800 phases=1
New Line.L279 bus1=279 bus2=280 r1=0.006900 x1=0.001800 phases=1
New Line.L280 bus1=280 bus2=281 r1=0.006900 x1=0.001800 phases=1
New Line.L281 bus1=281 bus2=282 r1=0.006900 x1=0.001800 phases=1
New Line.L282 bus1=279 bus2=283 r1=0.011000 x1=0.001700 phases=1
New Line.L283 bus1=280 bus2=284 r1=0.011000 x1=0.001700 phases=1
New Line.L284 bus1=281 bus2=285 r1=0.011000 x1=0.001700 phases=1
New Line.L285 bus1=282 bus2=286 r1=0.011000 x1=0.001700 phases=1
New Line.L286 bus1=279 bus2=287 r1=0.011000 x1=0.001700 phases=1
New Line.L287 bus1=280 bus2=288 r1=0.011000 x1=0.001700 phases=1
New Line.L288 bus1=281 bus2=289 r1=0.011000 x1=0.001700 phases=1
New Line.L289 bus1=282 bus2=290 r1=0.011000 x1=0.001700 phases=1
!New Line.L290 bus1=17 bus2=291 r1=0.014300 x1=0.035700 phases=1
New Line.L291 bus1=291 bus2=292 r1=0.006900 x1=0.001800 phases=1
New Line.L292 bus1=292 bus2=293 r1=0.006900 x1=0.001800 phases=1
New Line.L293 bus1=293 bus2=294 r1=0.006900 x1=0.001800 phases=1
New Line.L294 bus1=294 bus2=295 r1=0.006900 x1=0.001800 phases=1
New Line.L295 bus1=292 bus2=296 r1=0.011000 x1=0.001700 phases=1
New Line.L296 bus1=293 bus2=297 r1=0.011000 x1=0.001700 phases=1
New Line.L297 bus1=294 bus2=298 r1=0.011000 x1=0.001700 phases=1
New Line.L298 bus1=295 bus2=299 r1=0.011000 x1=0.001700 phases=1
New Line.L299 bus1=292 bus2=300 r1=0.011000 x1=0.001700 phases=1
New Line.L300 bus1=293 bus2=301 r1=0.011000 x1=0.001700 phases=1
New Line.L301 bus1=294 bus2=302 r1=0.011000 x1=0.001700 phases=1
New Line.L302 bus1=295 bus2=303 r1=0.011000 x1=0.001700 phases=1
!New Line.L303 bus1=18 bus2=304 r1=0.014300 x1=0.035700 phases=1
New Line.L304 bus1=304 bus2=305 r1=0.006900 x1=0.001800 phases=1
New Line.L305 bus1=305 bus2=306 r1=0.006900 x1=0.001800 phases=1
New Line.L306 bus1=306 bus2=307 r1=0.006900 x1=0.001800 phases=1
New Line.L307 bus1=307 bus2=308 r1=0.006900 x1=0.001800 phases=1
New Line.L308 bus1=308 bus2=309 r1=0.006900 x1=0.001800 phases=1
New Line.L309 bus1=305 bus2=310 r1=0.011000 x1=0.001700 phases=1
New Line.L310 bus1=306 bus2=311 r1=0.011000 x1=0.001700 phases=1
New Line.L311 bus1=307 bus2=312 r1=0.011000 x1=0.001700 phases=1
New Line.L312 bus1=308 bus2=313 r1=0.011000 x1=0.001700 phases=1
New Line.L313 bus1=309 bus2=314 r1=0.011000 x1=0.001700 phases=1
New Line.L314 bus1=305 bus2=315 r1=0.011000 x1=0.001700 phases=1
New Line.L315 bus1=306 bus2=316 r1=0.011000 x1=0.001700 phases=1
New Line.L316 bus1=307 bus2=317 r1=0.011000 x1=0.001700 phases=1
New Line.L317 bus1=308 bus2=318 r1=0.011000 x1=0.001700 phases=1
New Line.L318 bus1=309 bus2=319 r1=0.011000 x1=0.001700 phases=1
!New Line.L319 bus1=19 bus2=320 r1=0.014300 x1=0.035700 phases=1
New Line.L320 bus1=320 bus2=321 r1=0.006900 x1=0.001800 phases=1
New Line.L321 bus1=321 bus2=322 r1=0.006900 x1=0.001800 phases=1
New Line.L322 bus1=322 bus2=323 r1=0.006900 x1=0.001800 phases=1
New Line.L323 bus1=323 bus2=324 r1=0.006900 x1=0.001800 phases=1
New Line.L324 bus1=324 bus2=325 r1=0.006900 x1=0.001800 phases=1
New Line.L325 bus1=321 bus2=326 r1=0.011000 x1=0.001700 phases=1
New Line.L326 bus1=322 bus2=327 r1=0.011000 x1=0.001700 phases=1
New Line.L327 bus1=323 bus2=328 r1=0.011000 x1=0.001700 phases=1
New Line.L328 bus1=324 bus2=329 r1=0.011000 x1=0.001700 phases=1
New Line.L329 bus1=325 bus2=330 r1=0.011000 x1=0.001700 phases=1
New Line.L330 bus1=321 bus2=331 r1=0.011000 x1=0.001700 phases=1
New Line.L331 bus1=322 bus2=332 r1=0.011000 x1=0.001700 phases=1
New Line.L332 bus1=323 bus2=333 r1=0.011000 x1=0.001700 phases=1
New Line.L333 bus1=324 bus2=334 r1=0.011000 x1=0.001700 phases=1
New Line.L334 bus1=325 bus2=335 r1=0.011000 x1=0.001700 phases=1
!New Line.L335 bus1=20 bus2=336 r1=0.014300 x1=0.035700 phases=1
New Line.L336 bus1=336 bus2=337 r1=0.006900 x1=0.001800 phases=1
New Line.L337 bus1=337 bus2=338 r1=0.006900 x1=0.001800 phases=1
New Line.L338 bus1=338 bus2=339 r1=0.006900 x1=0.001800 phases=1
New Line.L339 bus1=339 bus2=340 r1=0.006900 x1=0.001800 phases=1
New Line.L340 bus1=340 bus2=341 r1=0.006900 x1=0.001800 phases=1
New Line.L341 bus1=337 bus2=342 r1=0.011000 x1=0.001700 phases=1
New Line.L342 bus1=338 bus2=343 r1=0.011000 x1=0.001700 phases=1
New Line.L343 bus1=339 bus2=344 r1=0.011000 x1=0.001700 phases=1
New Line.L344 bus1=340 bus2=345 r1=0.011000 x1=0.001700 phases=1
New Line.L345 bus1=341 bus2=346 r1=0.011000 x1=0.001700 phases=1
New Line.L346 bus1=337 bus2=347 r1=0.011000 x1=0.001700 phases=1
New Line.L347 bus1=338 bus2=348 r1=0.011000 x1=0.001700 phases=1
New Line.L348 bus1=339 bus2=349 r1=0.011000 x1=0.001700 phases=1
New Line.L349 bus1=340 bus2=350 r1=0.011000 x1=0.001700 phases=1
New Line.L350 bus1=341 bus2=351 r1=0.011000 x1=0.001700 phases=1
!New Line.L351 bus1=21 bus2=352 r1=0.014300 x1=0.035700 phases=1
New Line.L352 bus1=352 bus2=353 r1=0.006900 x1=0.001800 phases=1
New Line.L353 bus1=353 bus2=354 r1=0.006900 x1=0.001800 phases=1
New Line.L354 bus1=354 bus2=355 r1=0.006900 x1=0.001800 phases=1
New Line.L355 bus1=355 bus2=356 r1=0.006900 x1=0.001800 phases=1
New Line.L356 bus1=356 bus2=357 r1=0.006900 x1=0.001800 phases=1
New Line.L357 bus1=353 bus2=358 r1=0.011000 x1=0.001700 phases=1
New Line.L358 bus1=354 bus2=359 r1=0.011000 x1=0.001700 phases=1
New Line.L359 bus1=355 bus2=360 r1=0.011000 x1=0.001700 phases=1
New Line.L360 bus1=356 bus2=361 r1=0.011000 x1=0.001700 phases=1
New Line.L361 bus1=357 bus2=362 r1=0.011000 x1=0.001700 phases=1
New Line.L362 bus1=353 bus2=363 r1=0.011000 x1=0.001700 phases=1
New Line.L363 bus1=354 bus2=364 r1=0.011000 x1=0.001700 phases=1
New Line.L364 bus1=355 bus2=365 r1=0.011000 x1=0.001700 phases=1
New Line.L365 bus1=356 bus2=366 r1=0.011000 x1=0.001700 phases=1
New Line.L366 bus1=357 bus2=367 r1=0.011000 x1=0.001700 phases=1
!New Line.L367 bus1=22 bus2=368 r1=0.014300 x1=0.035700 phases=1
New Line.L368 bus1=368 bus2=369 r1=0.006900 x1=0.001800 phases=1
New Line.L369 bus1=369 bus2=370 r1=0.006900 x1=0.001800 phases=1
New Line.L370 bus1=370 bus2=371 r1=0.006900 x1=0.001800 phases=1
New Line.L371 bus1=371 bus2=372 r1=0.006900 x1=0.001800 phases=1
New Line.L372 bus1=372 bus2=373 r1=0.006900 x1=0.001800 phases=1
New Line.L373 bus1=369 bus2=374 r1=0.011000 x1=0.001700 phases=1
New Line.L374 bus1=370 bus2=375 r1=0.011000 x1=0.001700 phases=1
New Line.L375 bus1=371 bus2=376 r1=0.011000 x1=0.001700 phases=1
New Line.L376 bus1=372 bus2=377 r1=0.011000 x1=0.001700 phases=1
New Line.L377 bus1=373 bus2=378 r1=0.011000 x1=0.001700 phases=1
New Line.L378 bus1=369 bus2=379 r1=0.011000 x1=0.001700 phases=1
New Line.L379 bus1=370 bus2=380 r1=0.011000 x1=0.001700 phases=1
New Line.L380 bus1=371 bus2=381 r1=0.011000 x1=0.001700 phases=1
New Line.L381 bus1=372 bus2=382 r1=0.011000 x1=0.001700 phases=1
New Line.L382 bus1=373 bus2=383 r1=0.011000 x1=0.001700 phases=1
!New Line.L383 bus1=23 bus2=384 r1=0.014300 x1=0.035700 phases=1
New Line.L384 bus1=384 bus2=385 r1=0.006900 x1=0.001800 phases=1
New Line.L385 bus1=385 bus2=386 r1=0.006900 x1=0.001800 phases=1
New Line.L386 bus1=386 bus2=387 r1=0.006900 x1=0.001800 phases=1
New Line.L387 bus1=387 bus2=388 r1=0.006900 x1=0.001800 phases=1
New Line.L388 bus1=388 bus2=389 r1=0.006900 x1=0.001800 phases=1
New Line.L389 bus1=385 bus2=390 r1=0.011000 x1=0.001700 phases=1
New Line.L390 bus1=386 bus2=391 r1=0.011000 x1=0.001700 phases=1
New Line.L391 bus1=387 bus2=392 r1=0.011000 x1=0.001700 phases=1
New Line.L392 bus1=388 bus2=393 r1=0.011000 x1=0.001700 phases=1
New Line.L393 bus1=389 bus2=394 r1=0.011000 x1=0.001700 phases=1
New Line.L394 bus1=385 bus2=395 r1=0.011000 x1=0.001700 phases=1
New Line.L395 bus1=386 bus2=396 r1=0.011000 x1=0.001700 phases=1
New Line.L396 bus1=387 bus2=397 r1=0.011000 x1=0.001700 phases=1
New Line.L397 bus1=388 bus2=398 r1=0.011000 x1=0.001700 phases=1
New Line.L398 bus1=389 bus2=399 r1=0.011000 x1=0.001700 phases=1
!New Line.L399 bus1=24 bus2=400 r1=0.014300 x1=0.035700 phases=1
New Line.L400 bus1=400 bus2=401 r1=0.006900 x1=0.001800 phases=1
New Line.L401 bus1=401 bus2=402 r1=0.006900 x1=0.001800 phases=1
New Line.L402 bus1=402 bus2=403 r1=0.006900 x1=0.001800 phases=1
New Line.L403 bus1=403 bus2=404 r1=0.006900 x1=0.001800 phases=1
New Line.L404 bus1=404 bus2=405 r1=0.006900 x1=0.001800 phases=1
New Line.L405 bus1=405 bus2=406 r1=0.006900 x1=0.001800 phases=1
New Line.L406 bus1=401 bus2=407 r1=0.011000 x1=0.001700 phases=1
New Line.L407 bus1=402 bus2=408 r1=0.011000 x1=0.001700 phases=1
New Line.L408 bus1=403 bus2=409 r1=0.011000 x1=0.001700 phases=1
New Line.L409 bus1=404 bus2=410 r1=0.011000 x1=0.001700 phases=1
New Line.L410 bus1=405 bus2=411 r1=0.011000 x1=0.001700 phases=1
New Line.L411 bus1=406 bus2=412 r1=0.011000 x1=0.001700 phases=1
New Line.L412 bus1=401 bus2=413 r1=0.011000 x1=0.001700 phases=1
New Line.L413 bus1=402 bus2=414 r1=0.011000 x1=0.001700 phases=1
New Line.L414 bus1=403 bus2=415 r1=0.011000 x1=0.001700 phases=1
New Line.L415 bus1=404 bus2=416 r1=0.011000 x1=0.001700 phases=1
New Line.L416 bus1=405 bus2=417 r1=0.011000 x1=0.001700 phases=1
New Line.L417 bus1=406 bus2=418 r1=0.011000 x1=0.001700 phases=1
!New Line.L418 bus1=24 bus2=419 r1=0.014300 x1=0.035700 phases=1
New Line.L419 bus1=419 bus2=420 r1=0.006900 x1=0.001800 phases=1
New Line.L420 bus1=420 bus2=421 r1=0.006900 x1=0.001800 phases=1
New Line.L421 bus1=421 bus2=422 r1=0.006900 x1=0.001800 phases=1
New Line.L422 bus1=422 bus2=423 r1=0.006900 x1=0.001800 phases=1
New Line.L423 bus1=423 bus2=424 r1=0.006900 x1=0.001800 phases=1
New Line.L424 bus1=424 bus2=425 r1=0.006900 x1=0.001800 phases=1
New Line.L425 bus1=420 bus2=426 r1=0.011000 x1=0.001700 phases=1
New Line.L426 bus1=421 bus2=427 r1=0.011000 x1=0.001700 phases=1
New Line.L427 bus1=422 bus2=428 r1=0.011000 x1=0.001700 phases=1
New Line.L428 bus1=423 bus2=429 r1=0.011000 x1=0.001700 phases=1
New Line.L429 bus1=424 bus2=430 r1=0.011000 x1=0.001700 phases=1
New Line.L430 bus1=425 bus2=431 r1=0.011000 x1=0.001700 phases=1
New Line.L431 bus1=420 bus2=432 r1=0.011000 x1=0.001700 phases=1
New Line.L432 bus1=421 bus2=433 r1=0.011000 x1=0.001700 phases=1
New Line.L433 bus1=422 bus2=434 r1=0.011000 x1=0.001700 phases=1
New Line.L434 bus1=423 bus2=435 r1=0.011000 x1=0.001700 phases=1
New Line.L435 bus1=424 bus2=436 r1=0.011000 x1=0.001700 phases=1
New Line.L436 bus1=425 bus2=437 r1=0.011000 x1=0.001700 phases=1
!New Line.L437 bus1=24 bus2=438 r1=0.014300 x1=0.035700 phases=1
New Line.L438 bus1=438 bus2=439 r1=0.006900 x1=0.001800 phases=1
New Line.L439 bus1=439 bus2=440 r1=0.006900 x1=0.001800 phases=1
New Line.L440 bus1=440 bus2=441 r1=0.006900 x1=0.001800 phases=1
New Line.L441 bus1=441 bus2=442 r1=0.006900 x1=0.001800 phases=1
New Line.L442 bus1=442 bus2=443 r1=0.006900 x1=0.001800 phases=1
New Line.L443 bus1=443 bus2=444 r1=0.006900 x1=0.001800 phases=1
New Line.L444 bus1=439 bus2=445 r1=0.011000 x1=0.001700 phases=1
New Line.L445 bus1=440 bus2=446 r1=0.011000 x1=0.001700 phases=1
New Line.L446 bus1=441 bus2=447 r1=0.011000 x1=0.001700 phases=1
New Line.L447 bus1=442 bus2=448 r1=0.011000 x1=0.001700 phases=1
New Line.L448 bus1=443 bus2=449 r1=0.011000 x1=0.001700 phases=1
New Line.L449 bus1=444 bus2=450 r1=0.011000 x1=0.001700 phases=1
New Line.L450 bus1=439 bus2=451 r1=0.011000 x1=0.001700 phases=1
New Line.L451 bus1=440 bus2=452 r1=0.011000 x1=0.001700 phases=1
New Line.L452 bus1=441 bus2=453 r1=0.011000 x1=0.001700 phases=1
New Line.L453 bus1=442 bus2=454 r1=0.011000 x1=0.001700 phases=1
New Line.L454 bus1=443 bus2=455 r1=0.011000 x1=0.001700 phases=1
New Line.L455 bus1=444 bus2=456 r1=0.011000 x1=0.001700 phases=1
!New Line.L456 bus1=24 bus2=457 r1=0.014300 x1=0.035700 phases=1
New Line.L457 bus1=457 bus2=458 r1=0.006900 x1=0.001800 phases=1
New Line.L458 bus1=458 bus2=459 r1=0.006900 x1=0.001800 phases=1
New Line.L459 bus1=459 bus2=460 r1=0.006900 x1=0.001800 phases=1
New Line.L460 bus1=460 bus2=461 r1=0.006900 x1=0.001800 phases=1
New Line.L461 bus1=461 bus2=462 r1=0.006900 x1=0.001800 phases=1
New Line.L462 bus1=462 bus2=463 r1=0.006900 x1=0.001800 phases=1
New Line.L463 bus1=458 bus2=464 r1=0.011000 x1=0.001700 phases=1
New Line.L464 bus1=459 bus2=465 r1=0.011000 x1=0.001700 phases=1
New Line.L465 bus1=460 bus2=466 r1=0.011000 x1=0.001700 phases=1
New Line.L466 bus1=461 bus2=467 r1=0.011000 x1=0.001700 phases=1