New Load.L1  bus1=1  model=1 phases=1 conn=wye kv=0.24 kW=0.000000 kvar=0.000000 Vminpu=0.1 Vmaxpu=1.1
New Load.L2  bus1=2  model=1 phases=1 conn=wye kv=0.24 kW=0.000000 kvar=0.000000 Vminpu=0.1 Vmaxpu=1.1
New Load.L3  bus1=3  model=1 phases=1 conn=wye kv=0.24 kW=0.000000 kvar=0.000000 Vminpu=0.1 Vmaxpu=1.1
New Load.L4  bus1=4  model=1 phases=1 conn=wye kv=0.24 kW=0.000000 kvar=0.000000 Vminpu=0.1 Vmaxpu=1.1
New Load.L5  bus1=5  model=1 phases=1 conn=wye kv=0.24 kW=0.000000 kvar=0.000000 Vminpu=0.1 Vmaxpu=1.1
New Load.L6  bus1=6  model=1 phases=1 conn=wye kv=0.24 kW=0.000000 kvar=0.000000 Vminpu=0.1 Vmaxpu=1.1
New Load.L7  bus1=7  model=1 phases=1 conn=wye kv=0.24 kW=0.000000 kvar=0.000000 Vminpu=0.1 Vmaxpu=1.1
New Load.L8  bus1=8  model=1 phases=1 conn=wye kv=0.24 kW=0.000000 kvar=0.000000 Vminpu=0.1 Vmaxpu=1.1
New Load.L9  bus1=9  model=1 phases=1 conn=wye kv=0.24 kW=0.000000 kvar=0.000000 Vminpu=0.1 Vmaxpu=1.1
New Load.L10  bus1=10  model=1 phases=1 conn=wye kv=0.24 kW=0.000000 kvar=0.000000 Vminpu=0.1 Vmaxpu=1.1
New Load.L11  bus1=11  model=1 phases=1 conn=wye kv=0.24 kW=0.000000 kvar=0.000000 Vminpu=0.1 Vmaxpu=1.1
New Load.L12  bus1=12  model=1 phases=1 conn=wye kv=0.24 kW=0.000000 kvar=0.000000 Vminpu=0.1 Vmaxpu=1.1
New Load.L13  bus1=13  model=1 phases=1 conn=wye kv=0.24 kW=0.000000 kvar=0.000000 Vminpu=0.1 Vmaxpu=1.1
New Load.L14  bus1=14  model=1 phases=1 conn=wye kv=0.24 kW=0.000000 kvar=0.000000 Vminpu=0.1 Vmaxpu=1.1
New Load.L15  bus1=15  model=1 phases=1 conn=wye kv=0.24 kW=0.000000 kvar=0.000000 Vminpu=0.1 Vmaxpu=1.1
New Load.L16  bus1=16  model=1 phases=1 conn=wye kv=0.24 kW=0.000000 kvar=0.000000 Vminpu=0.1 Vmaxpu=1.1
New Load.L17  bus1=17  model=1 phases=1 conn=wye kv=0.24 kW=0.000000 kvar=0.000000 Vminpu=0.1 Vmaxpu=1.1
New Load.L18  bus1=18  model=1 phases=1 conn=wye kv=0.24 kW=0.000000 kvar=0.000000 Vminpu=0.1 Vmaxpu=1.1
New Load.L19  bus1=19  model=1 phases=1 conn=wye kv=0.24 kW=0.000000 kvar=0.000000 Vminpu=0.1 Vmaxpu=1.1
New Load.L20  bus1=20  model=1 phases=1 conn=wye kv=0.24 kW=0.000000 kvar=0.000000 Vminpu=0.1 Vmaxpu=1.1
New Load.L21  bus1=21  model=1 phases=1 conn=wye kv=0.24 kW=0.000000 kvar=0.000000 Vminpu=0.1 Vmaxpu=1.1
New Load.L22  bus1=22  model=1 phases=1 conn=wye kv=0.24 kW=0.000000 kvar=0.000000 Vminpu=0.1 Vmaxpu=1.1
New Load.L23  bus1=23  model=1 phases=1 conn=wye kv=0.24 kW=0.000000 kvar=0.000000 Vminpu=0.1 Vmaxpu=1.1
New Load.L24  bus1=24  model=1 phases=1 conn=wye kv=0.24 kW=0.000000 kvar=0.000000 Vminpu=0.1 Vmaxpu=1.1
New Load.L25  bus1=25  model=1 phases=1 conn=wye kv=0.24 kW=0.000000 kvar=0.000000 Vminpu=0.1 Vmaxpu=1.1
New Load.L26  bus1=26  model=1 phases=1 conn=wye kv=0.24 kW=0.000000 kvar=0.000000 Vminpu=0.1 Vmaxpu=1.1
New Load.L27  bus1=27  model=1 phases=1 conn=wye kv=0.24 kW=0.000000 kvar=0.000000 Vminpu=0.1 Vmaxpu=1.1
New Load.L28  bus1=28  model=1 phases=1 conn=wye kv=0.24 kW=0.000000 kvar=0.000000 Vminpu=0.1 Vmaxpu=1.1
New Load.L29  bus1=29  model=1 phases=1 conn=wye kv=0.24 kW=0.000000 kvar=0.000000 Vminpu=0.1 Vmaxpu=1.1
New Load.L30  bus1=30  model=1 phases=1 conn=wye kv=0.24 kW=0.000000 kvar=0.000000 Vminpu=0.1 Vmaxpu=1.1
New Load.L31  bus1=31  model=1 phases=1 conn=wye kv=0.24 kW=0.000000 kvar=0.000000 Vminpu=0.1 Vmaxpu=1.1
New Load.L32  bus1=32  model=1 phases=1 conn=wye kv=0.24 kW=0.000000 kvar=0.000000 Vminpu=0.1 Vmaxpu=1.1
New Load.L33  bus1=33  model=1 phases=1 conn=wye kv=0.24 kW=0.000000 kvar=0.000000 Vminpu=0.1 Vmaxpu=1.1
New Load.L34  bus1=34  model=1 phases=1 conn=wye kv=0.24 kW=0.000000 kvar=0.000000 Vminpu=0.1 Vmaxpu=1.1
New Load.L35  bus1=35  model=1 phases=1 conn=wye kv=0.24 kW=0.000000 kvar=0.000000 Vminpu=0.1 Vmaxpu=1.1
New Load.L36  bus1=36  model=1 phases=1 conn=wye kv=0.24 kW=0.000000 kvar=0.000000 Vminpu=0.1 Vmaxpu=1.1
New Load.L37  bus1=37  model=1 phases=1 conn=wye kv=0.24 kW=0.000000 kvar=0.000000 Vminpu=0.1 Vmaxpu=1.1
New Load.L38  bus1=38  model=1 phases=1 conn=wye kv=0.24 kW=0.000000 kvar=0.000000 Vminpu=0.1 Vmaxpu=1.1
New Load.L39  bus1=39  model=1 phases=1 conn=wye kv=0.24 kW=0.000000 kvar=0.000000 Vminpu=0.1 Vmaxpu=1.1
New Load.L40  bus1=40  model=1 phases=1 conn=wye kv=0.24 kW=0.000000 kvar=0.000000 Vminpu=0.1 Vmaxpu=1.1
New Load.L41  bus1=41  model=1 phases=1 conn=wye kv=0.24 kW=6.414717 kvar=2.138239 Vminpu=0.1 Vmaxpu=1.1
New Load.L42  bus1=42  model=1 phases=1 conn=wye kv=0.24 kW=6.227850 kvar=2.075950 Vminpu=0.1 Vmaxpu=1.1
New Load.L43  bus1=43  model=1 phases=1 conn=wye kv=0.24 kW=4.194717 kvar=1.398239 Vminpu=0.1 Vmaxpu=1.1
New Load.L44  bus1=44  model=1 phases=1 conn=wye kv=0.24 kW=6.362200 kvar=2.120733 Vminpu=0.1 Vmaxpu=1.1
New Load.L45  bus1=45  model=1 phases=1 conn=wye kv=0.24 kW=1.558867 kvar=0.519622 Vminpu=0.1 Vmaxpu=1.1
New Load.L46  bus1=46  model=1 phases=1 conn=wye kv=0.24 kW=1.803450 kvar=0.601150 Vminpu=0.1 Vmaxpu=1.1
New Load.L47  bus1=47  model=1 phases=1 conn=wye kv=0.24 kW=6.770167 kvar=2.256722 Vminpu=0.1 Vmaxpu=1.1
New Load.L48  bus1=48  model=1 phases=1 conn=wye kv=0.24 kW=0.941367 kvar=0.313789 Vminpu=0.1 Vmaxpu=1.1
New Load.L49  bus1=49  model=1 phases=1 conn=wye kv=0.24 kW=1.019283 kvar=0.339761 Vminpu=0.1 Vmaxpu=1.1
New Load.L50  bus1=50  model=1 phases=1 conn=wye kv=0.24 kW=3.488450 kvar=1.162817 Vminpu=0.1 Vmaxpu=1.1
New Load.L51  bus1=51  model=1 phases=1 conn=wye kv=0.24 kW=1.865267 kvar=0.621756 Vminpu=0.1 Vmaxpu=1.1
New Load.L52  bus1=52  model=1 phases=1 conn=wye kv=0.24 kW=5.127150 kvar=1.709050 Vminpu=0.1 Vmaxpu=1.1
New Load.L53  bus1=53  model=1 phases=1 conn=wye kv=0.24 kW=0.000000 kvar=0.000000 Vminpu=0.1 Vmaxpu=1.1
New Load.L54  bus1=54  model=1 phases=1 conn=wye kv=0.24 kW=0.000000 kvar=0.000000 Vminpu=0.1 Vmaxpu=1.1
New Load.L55  bus1=55  model=1 phases=1 conn=wye kv=0.24 kW=0.000000 kvar=0.000000 Vminpu=0.1 Vmaxpu=1.1
New Load.L56  bus1=56  model=1 phases=1 conn=wye kv=0.24 kW=0.000000 kvar=0.000000 Vminpu=0.1 Vmaxpu=1.1
New Load.L57  bus1=57  model=1 phases=1 conn=wye kv=0.24 kW=0.000000 kvar=0.000000 Vminpu=0.1 Vmaxpu=1.1
New Load.L58  bus1=58  model=1 phases=1 conn=wye kv=0.24 kW=0.000000 kvar=0.000000 Vminpu=0.1 Vmaxpu=1.1
New Load.L59  bus1=59  model=1 phases=1 conn=wye kv=0.24 kW=5.239600 kvar=1.746533 Vminpu=0.1 Vmaxpu=1.1
New Load.L60  bus1=60  model=1 phases=1 conn=wye kv=0.24 kW=7.407100 kvar=2.469033 Vminpu=0.1 Vmaxpu=1.1
New Load.L61  bus1=61  model=1 phases=1 conn=wye kv=0.24 kW=1.448583 kvar=0.482861 Vminpu=0.1 Vmaxpu=1.1
New Load.L62  bus1=62  model=1 phases=1 conn=wye kv=0.24 kW=1.448083 kvar=0.482694 Vminpu=0.1 Vmaxpu=1.1
New Load.L63  bus1=63  model=1 phases=1 conn=wye kv=0.24 kW=1.194883 kvar=0.398294 Vminpu=0.1 Vmaxpu=1.1
New Load.L64  bus1=64  model=1 phases=1 conn=wye kv=0.24 kW=9.829400 kvar=3.276467 Vminpu=0.1 Vmaxpu=1.1
New Load.L65  bus1=65  model=1 phases=1 conn=wye kv=0.24 kW=4.393983 kvar=1.464661 Vminpu=0.1 Vmaxpu=1.1
New Load.L66  bus1=66  model=1 phases=1 conn=wye kv=0.24 kW=4.671450 kvar=1.557150 Vminpu=0.1 Vmaxpu=1.1
New Load.L67  bus1=67  model=1 phases=1 conn=wye kv=0.24 kW=2.796567 kvar=0.932189 Vminpu=0.1 Vmaxpu=1.1
New Load.L68  bus1=68  model=1 phases=1 conn=wye kv=0.24 kW=1.651250 kvar=0.550417 Vminpu=0.1 Vmaxpu=1.1
New Load.L69  bus1=69  model=1 phases=1 conn=wye kv=0.24 kW=0.000000 kvar=0.000000 Vminpu=0.1 Vmaxpu=1.1
New Load.L70  bus1=70  model=1 phases=1 conn=wye kv=0.24 kW=0.000000 kvar=0.000000 Vminpu=0.1 Vmaxpu=1.1
New Load.L71  bus1=71  model=1 phases=1 conn=wye kv=0.24 kW=0.000000 kvar=0.000000 Vminpu=0.1 Vmaxpu=1.1
New Load.L72  bus1=72  model=1 phases=1 conn=wye kv=0.24 kW=0.000000 kvar=0.000000 Vminpu=0.1 Vmaxpu=1.1
New Load.L73  bus1=73  model=1 phases=1 conn=wye kv=0.24 kW=0.000000 kvar=0.000000 Vminpu=0.1 Vmaxpu=1.1
New Load.L74  bus1=74  model=1 phases=1 conn=wye kv=0.24 kW=1.377367 kvar=0.459122 Vminpu=0.1 Vmaxpu=1.1
New Load.L75  bus1=75  model=1 phases=1 conn=wye kv=0.24 kW=1.273267 kvar=0.424422 Vminpu=0.1 Vmaxpu=1.1
New Load.L76  bus1=76  model=1 phases=1 conn=wye kv=0.24 kW=2.122750 kvar=0.707583 Vminpu=0.1 Vmaxpu=1.1
New Load.L77  bus1=77  model=1 phases=1 conn=wye kv=0.24 kW=1.645033 kvar=0.548344 Vminpu=0.1 Vmaxpu=1.1
New Load.L78  bus1=78  model=1 phases=1 conn=wye kv=0.24 kW=1.129117 kvar=0.376372 Vminpu=0.1 Vmaxpu=1.1
New Load.L79  bus1=79  model=1 phases=1 conn=wye kv=0.24 kW=2.167833 kvar=0.722611 Vminpu=0.1 Vmaxpu=1.1
New Load.L80  bus1=80  model=1 phases=1 conn=wye kv=0.24 kW=2.250167 kvar=0.750056 Vminpu=0.1 Vmaxpu=1.1
New Load.L81  bus1=81  model=1 phases=1 conn=wye kv=0.24 kW=1.536900 kvar=0.512300 Vminpu=0.1 Vmaxpu=1.1
New Load.L82  bus1=82  model=1 phases=1 conn=wye kv=0.24 kW=0.000000 kvar=0.000000 Vminpu=0.1 Vmaxpu=1.1
New Load.L83  bus1=83  model=1 phases=1 conn=wye kv=0.24 kW=0.000000 kvar=0.000000 Vminpu=0.1 Vmaxpu=1.1
New Load.L84  bus1=84  model=1 phases=1 conn=wye kv=0.24 kW=0.000000 kvar=0.000000 Vminpu=0.1 Vmaxpu=1.1
New Load.L85  bus1=85  model=1 phases=1 conn=wye kv=0.24 kW=0.000000 kvar=0.000000 Vminpu=0.1 Vmaxpu=1.1
New Load.L86  bus1=86  model=1 phases=1 conn=wye kv=0.24 kW=0.000000 kvar=0.000000 Vminpu=0.1 Vmaxpu=1.1
New Load.L87  bus1=87  model=1 phases=1 conn=wye kv=0.24 kW=1.072683 kvar=0.357561 Vminpu=0.1 Vmaxpu=1.1
New Load.L88  bus1=88  model=1 phases=1 conn=wye kv=0.24 kW=2.627417 kvar=0.875806 Vminpu=0.1 Vmaxpu=1.1
New Load.L89  bus1=89  model=1 phases=1 conn=wye kv=0.24 kW=0.651467 kvar=0.217156 Vminpu=0.1 Vmaxpu=1.1
New Load.L90  bus1=90  model=1 phases=1 conn=wye kv=0.24 kW=1.287717 kvar=0.429239 Vminpu=0.1 Vmaxpu=1.1
New Load.L91  bus1=91  model=1 phases=1 conn=wye kv=0.24 kW=1.363967 kvar=0.454656 Vminpu=0.1 Vmaxpu=1.1
New Load.L92  bus1=92  model=1 phases=1 conn=wye kv=0.24 kW=0.686417 kvar=0.228806 Vminpu=0.1 Vmaxpu=1.1
New Load.L93  bus1=93  model=1 phases=1 conn=wye kv=0.24 kW=1.379217 kvar=0.459739 Vminpu=0.1 Vmaxpu=1.1
New Load.L94  bus1=94  model=1 phases=1 conn=wye kv=0.24 kW=2.953017 kvar=0.984339 Vminpu=0.1 Vmaxpu=1.1
New Load.L95  bus1=95  model=1 phases=1 conn=wye kv=0.24 kW=0.000000 kvar=0.000000 Vminpu=0.1 Vmaxpu=1.1
New Load.L96  bus1=96  model=1 phases=1 conn=wye kv=0.24 kW=0.000000 kvar=0.000000 Vminpu=0.1 Vmaxpu=1.1
New Load.L97  bus1=97  model=1 phases=1 conn=wye kv=0.24 kW=0.000000 kvar=0.000000 Vminpu=0.1 Vmaxpu=1.1
New Load.L98  bus1=98  model=1 phases=1 conn=wye kv=0.24 kW=0.000000 kvar=0.000000 Vminpu=0.1 Vmaxpu=1.1
New Load.L99  bus1=99  model=1 phases=1 conn=wye kv=0.24 kW=0.000000 kvar=0.000000 Vminpu=0.1 Vmaxpu=1.1
New Load.L100  bus1=100  model=1 phases=1 conn=wye kv=0.24 kW=1.334100 kvar=0.444700 Vminpu=0.1 Vmaxpu=1.1
New Load.L101  bus1=101  model=1 phases=1 conn=wye kv=0.24 kW=5.167683 kvar=1.722561 Vminpu=0.1 Vmaxpu=1.1
New Load.L102  bus1=102  model=1 phases=1 conn=wye kv=0.24 kW=3.115933 kvar=1.038644 Vminpu=0.1 Vmaxpu=1.1
New Load.L103  bus1=103  model=1 phases=1 conn=wye kv=0.24 kW=0.687383 kvar=0.229128 Vminpu=0.1 Vmaxpu=1.1
New Load.L104  bus1=104  model=1 phases=1 conn=wye kv=0.24 kW=2.444650 kvar=0.814883 Vminpu=0.1 Vmaxpu=1.1
New Load.L105  bus1=105  model=1 phases=1 conn=wye kv=0.24 kW=2.261150 kvar=0.753717 Vminpu=0.1 Vmaxpu=1.1
New Load.L106  bus1=106  model=1 phases=1 conn=wye kv=0.24 kW=2.788667 kvar=0.929556 Vminpu=0.1 Vmaxpu=1.1
New Load.L107  bus1=107  model=1 phases=1 conn=wye kv=0.24 kW=4.440250 kvar=1.480083 Vminpu=0.1 Vmaxpu=1.1
New Load.L108  bus1=108  model=1 phases=1 conn=wye kv=0.24 kW=0.000000 kvar=0.000000 Vminpu=0.1 Vmaxpu=1.1
New Load.L109  bus1=109  model=1 phases=1 conn=wye kv=0.24 kW=0.000000 kvar=0.000000 Vminpu=0.1 Vmaxpu=1.1
New Load.L110  bus1=110  model=1 phases=1 conn=wye kv=0.24 kW=0.000000 kvar=0.000000 Vminpu=0.1 Vmaxpu=1.1
New Load.L111  bus1=111  model=1 phases=1 conn=wye kv=0.24 kW=0.000000 kvar=0.000000 Vminpu=0.1 Vmaxpu=1.1
New Load.L112  bus1=112  model=1 phases=1 conn=wye kv=0.24 kW=0.000000 kvar=0.000000 Vminpu=0.1 Vmaxpu=1.1
New Load.L113  bus1=113  model=1 phases=1 conn=wye kv=0.24 kW=0.000000 kvar=0.000000 Vminpu=0.1 Vmaxpu=1.1
New Load.L114  bus1=114  model=1 phases=1 conn=wye kv=0.24 kW=0.000000 kvar=0.000000 Vminpu=0.1 Vmaxpu=1.1
New Load.L115  bus1=115  model=1 phases=1 conn=wye kv=0.24 kW=2.355650 kvar=0.785217 Vminpu=0.1 Vmaxpu=1.1
New Load.L116  bus1=116  model=1 phases=1 conn=wye kv=0.24 kW=0.924250 kvar=0.308083 Vminpu=0.1 Vmaxpu=1.1
New Load.L117  bus1=117  model=1 phases=1 conn=wye kv=0.24 kW=2.516467 kvar=0.838822 Vminpu=0.1 Vmaxpu=1.1
New Load.L118  bus1=118  model=1 phases=1 conn=wye kv=0.24 kW=2.437983 kvar=0.812661 Vminpu=0.1 Vmaxpu=1.1
New Load.L119  bus1=119  model=1 phases=1 conn=wye kv=0.24 kW=2.953333 kvar=0.984444 Vminpu=0.1 Vmaxpu=1.1
New Load.L120  bus1=120  model=1 phases=1 conn=wye kv=0.24 kW=1.511767 kvar=0.503922 Vminpu=0.1 Vmaxpu=1.1
New Load.L121  bus1=121  model=1 phases=1 conn=wye kv=0.24 kW=2.203450 kvar=0.734483 Vminpu=0.1 Vmaxpu=1.1
New Load.L122  bus1=122  model=1 phases=1 conn=wye kv=0.24 kW=2.628983 kvar=0.876328 Vminpu=0.1 Vmaxpu=1.1
New Load.L123  bus1=123  model=1 phases=1 conn=wye kv=0.24 kW=1.391067 kvar=0.463689 Vminpu=0.1 Vmaxpu=1.1
New Load.L124  bus1=124  model=1 phases=1 conn=wye kv=0.24 kW=2.208833 kvar=0.736278 Vminpu=0.1 Vmaxpu=1.1
New Load.L125  bus1=125  model=1 phases=1 conn=wye kv=0.24 kW=1.986583 kvar=0.662194 Vminpu=0.1 Vmaxpu=1.1
New Load.L126  bus1=126  model=1 phases=1 conn=wye kv=0.24 kW=1.765867 kvar=0.588622 Vminpu=0.1 Vmaxpu=1.1
New Load.L127  bus1=127  model=1 phases=1 conn=wye kv=0.24 kW=0.000000 kvar=0.000000 Vminpu=0.1 Vmaxpu=1.1
New Load.L128  bus1=128  model=1 phases=1 conn=wye kv=0.24 kW=0.000000 kvar=0.000000 Vminpu=0.1 Vmaxpu=1.1
New Load.L129  bus1=129  model=1 phases=1 conn=wye kv=0.24 kW=0.000000 kvar=0.000000 Vminpu=0.1 Vmaxpu=1.1
New Load.L130  bus1=130  model=1 phases=1 conn=wye kv=0.24 kW=0.000000 kvar=0.000000 Vminpu=0.1 Vmaxpu=1.1
New Load.L131  bus1=131  model=1 phases=1 conn=wye kv=0.24 kW=0.000000 kvar=0.000000 Vminpu=0.1 Vmaxpu=1.1
New Load.L132  bus1=132  model=1 phases=1 conn=wye kv=0.24 kW=0.000000 kvar=0.000000 Vminpu=0.1 Vmaxpu=1.1
New Load.L133  bus1=133  model=1 phases=1 conn=wye kv=0.24 kW=0.000000 kvar=0.000000 Vminpu=0.1 Vmaxpu=1.1
New Load.L134  bus1=134  model=1 phases=1 conn=wye kv=0.24 kW=2.132833 kvar=0.710944 Vminpu=0.1 Vmaxpu=1.1
New Load.L135  bus1=135  model=1 phases=1 conn=wye kv=0.24 kW=1.381917 kvar=0.460639 Vminpu=0.1 Vmaxpu=1.1
New Load.L136  bus1=136  model=1 phases=1 conn=wye kv=0.24 kW=3.016383 kvar=1.005461 Vminpu=0.1 Vmaxpu=1.1
New Load.L137  bus1=137  model=1 phases=1 conn=wye kv=0.24 kW=2.179017 kvar=0.726339 Vminpu=0.1 Vmaxpu=1.1
New Load.L138  bus1=138  model=1 phases=1 conn=wye kv=0.24 kW=3.197133 kvar=1.065711 Vminpu=0.1 Vmaxpu=1.1
New Load.L139  bus1=139  model=1 phases=1 conn=wye kv=0.24 kW=1.685000 kvar=0.561667 Vminpu=0.1 Vmaxpu=1.1
New Load.L140  bus1=140  model=1 phases=1 conn=wye kv=0.24 kW=2.607800 kvar=0.869267 Vminpu=0.1 Vmaxpu=1.1
New Load.L141  bus1=141  model=1 phases=1 conn=wye kv=0.24 kW=2.627150 kvar=0.875717 Vminpu=0.1 Vmaxpu=1.1
New Load.L142  bus1=142  model=1 phases=1 conn=wye kv=0.24 kW=1.601283 kvar=0.533761 Vminpu=0.1 Vmaxpu=1.1
New Load.L143  bus1=143  model=1 phases=1 conn=wye kv=0.24 kW=1.687433 kvar=0.562478 Vminpu=0.1 Vmaxpu=1.1
New Load.L144  bus1=144  model=1 phases=1 conn=wye kv=0.24 kW=2.099167 kvar=0.699722 Vminpu=0.1 Vmaxpu=1.1
New Load.L145  bus1=145  model=1 phases=1 conn=wye kv=0.24 kW=1.584483 kvar=0.528161 Vminpu=0.1 Vmaxpu=1.1
New Load.L146  bus1=146  model=1 phases=1 conn=wye kv=0.24 kW=0.000000 kvar=0.000000 Vminpu=0.1 Vmaxpu=1.1
New Load.L147  bus1=147  model=1 phases=1 conn=wye kv=0.24 kW=0.000000 kvar=0.000000 Vminpu=0.1 Vmaxpu=1.1
New Load.L148  bus1=148  model=1 phases=1 conn=wye kv=0.24 kW=0.000000 kvar=0.000000 Vminpu=0.1 Vmaxpu=1.1
New Load.L149  bus1=149  model=1 phases=1 conn=wye kv=0.24 kW=0.000000 kvar=0.000000 Vminpu=0.1 Vmaxpu=1.1
New Load.L150  bus1=150  model=1 phases=1 conn=wye kv=0.24 kW=0.000000 kvar=0.000000 Vminpu=0.1 Vmaxpu=1.1
New Load.L151  bus1=151  model=1 phases=1 conn=wye kv=0.24 kW=0.000000 kvar=0.000000 Vminpu=0.1 Vmaxpu=1.1
New Load.L152  bus1=152  model=1 phases=1 conn=wye kv=0.24 kW=0.000000 kvar=0.000000 Vminpu=0.1 Vmaxpu=1.1
New Load.L153  bus1=153  model=1 phases=1 conn=wye kv=0.24 kW=1.604700 kvar=0.534900 Vminpu=0.1 Vmaxpu=1.1
New Load.L154  bus1=154  model=1 phases=1 conn=wye kv=0.24 kW=1.502017 kvar=0.500672 Vminpu=0.1 Vmaxpu=1.1
New Load.L155  bus1=155  model=1 phases=1 conn=wye kv=0.24 kW=2.131067 kvar=0.710356 Vminpu=0.1 Vmaxpu=1.1
New Load.L156  bus1=156  model=1 phases=1 conn=wye kv=0.24 kW=1.990950 kvar=0.663650 Vminpu=0.1 Vmaxpu=1.1
New Load.L157  bus1=157  model=1 phases=1 conn=wye kv=0.24 kW=2.415433 kvar=0.805144 Vminpu=0.1 Vmaxpu=1.1
New Load.L158  bus1=158  model=1 phases=1 conn=wye kv=0.24 kW=2.264783 kvar=0.754928 Vminpu=0.1 Vmaxpu=1.1
New Load.L159  bus1=159  model=1 phases=1 conn=wye kv=0.24 kW=2.705283 kvar=0.901761 Vminpu=0.1 Vmaxpu=1.1
New Load.L160  bus1=160  model=1 phases=1 conn=wye kv=0.24 kW=1.686250 kvar=0.562083 Vminpu=0.1 Vmaxpu=1.1
New Load.L161  bus1=161  model=1 phases=1 conn=wye kv=0.24 kW=1.331433 kvar=0.443811 Vminpu=0.1 Vmaxpu=1.1
New Load.L162  bus1=162  model=1 phases=1 conn=wye kv=0.24 kW=1.579617 kvar=0.526539 Vminpu=0.1 Vmaxpu=1.1
New Load.L163  bus1=163  model=1 phases=1 conn=wye kv=0.24 kW=2.734650 kvar=0.911550 Vminpu=0.1 Vmaxpu=1.1
New Load.L164  bus1=164  model=1 phases=1 conn=wye kv=0.24 kW=2.000717 kvar=0.666906 Vminpu=0.1 Vmaxpu=1.1
New Load.L165  bus1=165  model=1 phases=1 conn=wye kv=0.24 kW=0.000000 kvar=0.000000 Vminpu=0.1 Vmaxpu=1.1
New Load.L166  bus1=166  model=1 phases=1 conn=wye kv=0.24 kW=0.000000 kvar=0.000000 Vminpu=0.1 Vmaxpu=1.1
New Load.L167  bus1=167  model=1 phases=1 conn=wye kv=0.24 kW=0.000000 kvar=0.000000 Vminpu=0.1 Vmaxpu=1.1
New Load.L168  bus1=168  model=1 phases=1 conn=wye kv=0.24 kW=0.000000 kvar=0.000000 Vminpu=0.1 Vmaxpu=1.1
New Load.L169  bus1=169  model=1 phases=1 conn=wye kv=0.24 kW=0.000000 kvar=0.000000 Vminpu=0.1 Vmaxpu=1.1
New Load.L170  bus1=170  model=1 phases=1 conn=wye kv=0.24 kW=0.000000 kvar=0.000000 Vminpu=0.1 Vmaxpu=1.1
New Load.L171  bus1=171  model=1 phases=1 conn=wye kv=0.24 kW=0.000000 kvar=0.000000 Vminpu=0.1 Vmaxpu=1.1
New Load.L172  bus1=172  model=1 phases=1 conn=wye kv=0.24 kW=2.044717 kvar=0.681572 Vminpu=0.1 Vmaxpu=1.1
New Load.L173  bus1=173  model=1 phases=1 conn=wye kv=0.24 kW=2.418500 kvar=0.806167 Vminpu=0.1 Vmaxpu=1.1
New Load.L174  bus1=174  model=1 phases=1 conn=wye kv=0.24 kW=2.209500 kvar=0.736500 Vminpu=0.1 Vmaxpu=1.1
New Load.L175  bus1=175  model=1 phases=1 conn=wye kv=0.24 kW=2.060500 kvar=0.686833 Vminpu=0.1 Vmaxpu=1.1
New Load.L176  bus1=176  model=1 phases=1 conn=wye kv=0.24 kW=2.126683 kvar=0.708894 Vminpu=0.1 Vmaxpu=1.1
New Load.L177  bus1=177  model=1 phases=1 conn=wye kv=0.24 kW=2.163150 kvar=0.721050 Vminpu=0.1 Vmaxpu=1.1
New Load.L178  bus1=178  model=1 phases=1 conn=wye kv=0.24 kW=2.385217 kvar=0.795072 Vminpu=0.1 Vmaxpu=1.1
New Load.L179  bus1=179  model=1 phases=1 conn=wye kv=0.24 kW=2.071433 kvar=0.690478 Vminpu=0.1 Vmaxpu=1.1
New Load.L180  bus1=180  model=1 phases=1 conn=wye kv=0.24 kW=2.222117 kvar=0.740706 Vminpu=0.1 Vmaxpu=1.1
New Load.L181  bus1=181  model=1 phases=1 conn=wye kv=0.24 kW=1.323900 kvar=0.441300 Vminpu=0.1 Vmaxpu=1.1
New Load.L182  bus1=182  model=1 phases=1 conn=wye kv=0.24 kW=2.250467 kvar=0.750156 Vminpu=0.1 Vmaxpu=1.1
New Load.L183  bus1=183  model=1 phases=1 conn=wye kv=0.24 kW=2.056733 kvar=0.685578 Vminpu=0.1 Vmaxpu=1.1
New Load.L184  bus1=184  model=1 phases=1 conn=wye kv=0.24 kW=0.000000 kvar=0.000000 Vminpu=0.1 Vmaxpu=1.1
New Load.L185  bus1=185  model=1 phases=1 conn=wye kv=0.24 kW=0.000000 kvar=0.000000 Vminpu=0.1 Vmaxpu=1.1
New Load.L186  bus1=186  model=1 phases=1 conn=wye kv=0.24 kW=0.000000 kvar=0.000000 Vminpu=0.1 Vmaxpu=1.1
New Load.L187  bus1=187  model=1 phases=1 conn=wye kv=0.24 kW=0.000000 kvar=0.000000 Vminpu=0.1 Vmaxpu=1.1
New Load.L188  bus1=188  model=1 phases=1 conn=wye kv=0.24 kW=0.000000 kvar=0.000000 Vminpu=0.1 Vmaxpu=1.1
New Load.L189  bus1=189  model=1 phases=1 conn=wye kv=0.24 kW=1.795750 kvar=0.598583 Vminpu=0.1 Vmaxpu=1.1
New Load.L190  bus1=190  model=1 phases=1 conn=wye kv=0.24 kW=2.122367 kvar=0.707456 Vminpu=0.1 Vmaxpu=1.1
New Load.L191  bus1=191  model=1 phases=1 conn=wye kv=0.24 kW=1.511167 kvar=0.503722 Vminpu=0.1 Vmaxpu=1.1
New Load.L192  bus1=192  model=1 phases=1 conn=wye kv=0.24 kW=2.105167 kvar=0.701722 Vminpu=0.1 Vmaxpu=1.1
New Load.L193  bus1=193  model=1 phases=1 conn=wye kv=0.24 kW=2.929367 kvar=0.976456 Vminpu=0.1 Vmaxpu=1.1
New Load.L194  bus1=194  model=1 phases=1 conn=wye kv=0.24 kW=2.503733 kvar=0.834578 Vminpu=0.1 Vmaxpu=1.1
New Load.L195  bus1=195  model=1 phases=1 conn=wye kv=0.24 kW=2.146167 kvar=0.715389 Vminpu=0.1 Vmaxpu=1.1
New Load.L196  bus1=196  model=1 phases=1 conn=wye kv=0.24 kW=5.490950 kvar=1.830317 Vminpu=0.1 Vmaxpu=1.1
New Load.L197  bus1=197  model=1 phases=1 conn=wye kv=0.24 kW=0.000000 kvar=0.000000 Vminpu=0.1 Vmaxpu=1.1
New Load.L198  bus1=198  model=1 phases=1 conn=wye kv=0.24 kW=0.000000 kvar=0.000000 Vminpu=0.1 Vmaxpu=1.1
New Load.L199  bus1=199  model=1 phases=1 conn=wye kv=0.24 kW=0.000000 kvar=0.000000 Vminpu=0.1 Vmaxpu=1.1
New Load.L200  bus1=200  model=1 phases=1 conn=wye kv=0.24 kW=0.000000 kvar=0.000000 Vminpu=0.1 Vmaxpu=1.1
New Load.L201  bus1=201  model=1 phases=1 conn=wye kv=0.24 kW=0.000000 kvar=0.000000 Vminpu=0.1 Vmaxpu=1.1
New Load.L202  bus1=202  model=1 phases=1 conn=wye kv=0.24 kW=1.898867 kvar=0.632956 Vminpu=0.1 Vmaxpu=1.1
New Load.L203  bus1=203  model=1 phases=1 conn=wye kv=0.24 kW=2.061083 kvar=0.687028 Vminpu=0.1 Vmaxpu=1.1
New Load.L204  bus1=204  model=1 phases=1 conn=wye kv=0.24 kW=2.121017 kvar=0.707006 Vminpu=0.1 Vmaxpu=1.1
New Load.L205  bus1=205  model=1 phases=1 conn=wye kv=0.24 kW=2.132833 kvar=0.710944 Vminpu=0.1 Vmaxpu=1.1
New Load.L206  bus1=206  model=1 phases=1 conn=wye kv=0.24 kW=2.186950 kvar=0.728983 Vminpu=0.1 Vmaxpu=1.1
New Load.L207  bus1=207  model=1 phases=1 conn=wye kv=0.24 kW=5.085950 kvar=1.695317 Vminpu=0.1 Vmaxpu=1.1
New Load.L208  bus1=208  model=1 phases=1 conn=wye kv=0.24 kW=0.912183 kvar=0.304061 Vminpu=0.1 Vmaxpu=1.1
New Load.L209  bus1=209  model=1 phases=1 conn=wye kv=0.24 kW=2.310100 kvar=0.770033 Vminpu=0.1 Vmaxpu=1.1
New Load.L210  bus1=210  model=1 phases=1 conn=wye kv=0.24 kW=0.000000 kvar=0.000000 Vminpu=0.1 Vmaxpu=1.1
New Load.L211  bus1=211  model=1 phases=1 conn=wye kv=0.24 kW=0.000000 kvar=0.000000 Vminpu=0.1 Vmaxpu=1.1
New Load.L212  bus1=212  model=1 phases=1 conn=wye kv=0.24 kW=0.000000 kvar=0.000000 Vminpu=0.1 Vmaxpu=1.1
New Load.L213  bus1=213  model=1 phases=1 conn=wye kv=0.24 kW=0.000000 kvar=0.000000 Vminpu=0.1 Vmaxpu=1.1
New Load.L214  bus1=214  model=1 phases=1 conn=wye kv=0.24 kW=2.444133 kvar=0.814711 Vminpu=0.1 Vmaxpu=1.1
New Load.L215  bus1=215  model=1 phases=1 conn=wye kv=0.24 kW=1.352133 kvar=0.450711 Vminpu=0.1 Vmaxpu=1.1
New Load.L216  bus1=216  model=1 phases=1 conn=wye kv=0.24 kW=1.099383 kvar=0.366461 Vminpu=0.1 Vmaxpu=1.1
New Load.L217  bus1=217  model=1 phases=1 conn=wye kv=0.24 kW=1.075117 kvar=0.358372 Vminpu=0.1 Vmaxpu=1.1
New Load.L218  bus1=218  model=1 phases=1 conn=wye kv=0.24 kW=3.375733 kvar=1.125244 Vminpu=0.1 Vmaxpu=1.1
New Load.L219  bus1=219  model=1 phases=1 conn=wye kv=0.24 kW=2.486800 kvar=0.828933 Vminpu=0.1 Vmaxpu=1.1
New Load.L220  bus1=220  model=1 phases=1 conn=wye kv=0.24 kW=0.000000 kvar=0.000000 Vminpu=0.1 Vmaxpu=1.1
New Load.L221  bus1=221  model=1 phases=1 conn=wye kv=0.24 kW=0.000000 kvar=0.000000 Vminpu=0.1 Vmaxpu=1.1
New Load.L222  bus1=222  model=1 phases=1 conn=wye kv=0.24 kW=0.000000 kvar=0.000000 Vminpu=0.1 Vmaxpu=1.1
New Load.L223  bus1=223  model=1 phases=1 conn=wye kv=0.24 kW=0.000000 kvar=0.000000 Vminpu=0.1 Vmaxpu=1.1
New Load.L224  bus1=224  model=1 phases=1 conn=wye kv=0.24 kW=0.000000 kvar=0.000000 Vminpu=0.1 Vmaxpu=1.1
New Load.L225  bus1=225  model=1 phases=1 conn=wye kv=0.24 kW=1.639833 kvar=0.546611 Vminpu=0.1 Vmaxpu=1.1
New Load.L226  bus1=226  model=1 phases=1 conn=wye kv=0.24 kW=2.461117 kvar=0.820372 Vminpu=0.1 Vmaxpu=1.1
New Load.L227  bus1=227  model=1 phases=1 conn=wye kv=0.24 kW=2.674883 kvar=0.891628 Vminpu=0.1 Vmaxpu=1.1
New Load.L228  bus1=228  model=1 phases=1 conn=wye kv=0.24 kW=2.173333 kvar=0.724444 Vminpu=0.1 Vmaxpu=1.1
New Load.L229  bus1=229  model=1 phases=1 conn=wye kv=0.24 kW=2.087100 kvar=0.695700 Vminpu=0.1 Vmaxpu=1.1
New Load.L230  bus1=230  model=1 phases=1 conn=wye kv=0.24 kW=2.361750 kvar=0.787250 Vminpu=0.1 Vmaxpu=1.1
New Load.L231  bus1=231  model=1 phases=1 conn=wye kv=0.24 kW=2.211700 kvar=0.737233 Vminpu=0.1 Vmaxpu=1.1
New Load.L232  bus1=232  model=1 phases=1 conn=wye kv=0.24 kW=1.629483 kvar=0.543161 Vminpu=0.1 Vmaxpu=1.1
New Load.L233  bus1=233  model=1 phases=1 conn=wye kv=0.24 kW=0.000000 kvar=0.000000 Vminpu=0.1 Vmaxpu=1.1
New Load.L234  bus1=234  model=1 phases=1 conn=wye kv=0.24 kW=0.000000 kvar=0.000000 Vminpu=0.1 Vmaxpu=1.1
New Load.L235  bus1=235  model=1 phases=1 conn=wye kv=0.24 kW=0.000000 kvar=0.000000 Vminpu=0.1 Vmaxpu=1.1
New Load.L236  bus1=236  model=1 phases=1 conn=wye kv=0.24 kW=0.000000 kvar=0.000000 Vminpu=0.1 Vmaxpu=1.1
New Load.L237  bus1=237  model=1 phases=1 conn=wye kv=0.24 kW=0.000000 kvar=0.000000 Vminpu=0.1 Vmaxpu=1.1
New Load.L238  bus1=238  model=1 phases=1 conn=wye kv=0.24 kW=3.397133 kvar=1.132378 Vminpu=0.1 Vmaxpu=1.1
New Load.L239  bus1=239  model=1 phases=1 conn=wye kv=0.24 kW=2.684700 kvar=0.894900 Vminpu=0.1 Vmaxpu=1.1
New Load.L240  bus1=240  model=1 phases=1 conn=wye kv=0.24 kW=1.465417 kvar=0.488472 Vminpu=0.1 Vmaxpu=1.1
New Load.L241  bus1=241  model=1 phases=1 conn=wye kv=0.24 kW=2.544800 kvar=0.848267 Vminpu=0.1 Vmaxpu=1.1
New Load.L242  bus1=242  model=1 phases=1 conn=wye kv=0.24 kW=2.240883 kvar=0.746961 Vminpu=0.1 Vmaxpu=1.1
New Load.L243  bus1=243  model=1 phases=1 conn=wye kv=0.24 kW=1.556533 kvar=0.518844 Vminpu=0.1 Vmaxpu=1.1
New Load.L244  bus1=244  model=1 phases=1 conn=wye kv=0.24 kW=2.220983 kvar=0.740328 Vminpu=0.1 Vmaxpu=1.1
New Load.L245  bus1=245  model=1 phases=1 conn=wye kv=0.24 kW=2.066850 kvar=0.688950 Vminpu=0.1 Vmaxpu=1.1
New Load.L246  bus1=246  model=1 phases=1 conn=wye kv=0.24 kW=0.000000 kvar=0.000000 Vminpu=0.1 Vmaxpu=1.1
New Load.L247  bus1=247  model=1 phases=1 conn=wye kv=0.24 kW=0.000000 kvar=0.000000 Vminpu=0.1 Vmaxpu=1.1
New Load.L248  bus1=248  model=1 phases=1 conn=wye kv=0.24 kW=0.000000 kvar=0.000000 Vminpu=0.1 Vmaxpu=1.1
New Load.L249  bus1=249  model=1 phases=1 conn=wye kv=0.24 kW=0.000000 kvar=0.000000 Vminpu=0.1 Vmaxpu=1.1
New Load.L250  bus1=250  model=1 phases=1 conn=wye kv=0.24 kW=0.000000 kvar=0.000000 Vminpu=0.1 Vmaxpu=1.1
New Load.L251  bus1=251  model=1 phases=1 conn=wye kv=0.24 kW=0.000000 kvar=0.000000 Vminpu=0.1 Vmaxpu=1.1
New Load.L252  bus1=252  model=1 phases=1 conn=wye kv=0.24 kW=0.000000 kvar=0.000000 Vminpu=0.1 Vmaxpu=1.1
New Load.L253  bus1=253  model=1 phases=1 conn=wye kv=0.24 kW=0.872317 kvar=0.290772 Vminpu=0.1 Vmaxpu=1.1
New Load.L254  bus1=254  model=1 phases=1 conn=wye kv=0.24 kW=0.698000 kvar=0.232667 Vminpu=0.1 Vmaxpu=1.1
New Load.L255  bus1=255  model=1 phases=1 conn=wye kv=0.24 kW=0.732967 kvar=0.244322 Vminpu=0.1 Vmaxpu=1.1
New Load.L256  bus1=256  model=1 phases=1 conn=wye kv=0.24 kW=0.668983 kvar=0.222994 Vminpu=0.1 Vmaxpu=1.1
New Load.L257  bus1=257  model=1 phases=1 conn=wye kv=0.24 kW=0.683233 kvar=0.227744 Vminpu=0.1 Vmaxpu=1.1
New Load.L258  bus1=258  model=1 phases=1 conn=wye kv=0.24 kW=4.353050 kvar=1.451017 Vminpu=0.1 Vmaxpu=1.1
New Load.L259  bus1=259  model=1 phases=1 conn=wye kv=0.24 kW=2.977100 kvar=0.992367 Vminpu=0.1 Vmaxpu=1.1
New Load.L260  bus1=260  model=1 phases=1 conn=wye kv=0.24 kW=3.447200 kvar=1.149067 Vminpu=0.1 Vmaxpu=1.1
New Load.L261  bus1=261  model=1 phases=1 conn=wye kv=0.24 kW=1.992167 kvar=0.664056 Vminpu=0.1 Vmaxpu=1.1
New Load.L262  bus1=262  model=1 phases=1 conn=wye kv=0.24 kW=1.937950 kvar=0.645983 Vminpu=0.1 Vmaxpu=1.1
New Load.L263  bus1=263  model=1 phases=1 conn=wye kv=0.24 kW=2.133333 kvar=0.711111 Vminpu=0.1 Vmaxpu=1.1
New Load.L264  bus1=264  model=1 phases=1 conn=wye kv=0.24 kW=2.724883 kvar=0.908294 Vminpu=0.1 Vmaxpu=1.1
New Load.L265  bus1=265  model=1 phases=1 conn=wye kv=0.24 kW=0.000000 kvar=0.000000 Vminpu=0.1 Vmaxpu=1.1
New Load.L266  bus1=266  model=1 phases=1 conn=wye kv=0.24 kW=0.000000 kvar=0.000000 Vminpu=0.1 Vmaxpu=1.1
New Load.L267  bus1=267  model=1 phases=1 conn=wye kv=0.24 kW=0.000000 kvar=0.000000 Vminpu=0.1 Vmaxpu=1.1
New Load.L268  bus1=268  model=1 phases=1 conn=wye kv=0.24 kW=0.000000 kvar=0.000000 Vminpu=0.1 Vmaxpu=1.1
New Load.L269  bus1=269  model=1 phases=1 conn=wye kv=0.24 kW=0.000000 kvar=0.000000 Vminpu=0.1 Vmaxpu=1.1
New Load.L270  bus1=270  model=1 phases=1 conn=wye kv=0.24 kW=3.150933 kvar=1.050311 Vminpu=0.1 Vmaxpu=1.1
New Load.L271  bus1=271  model=1 phases=1 conn=wye kv=0.24 kW=3.086133 kvar=1.028711 Vminpu=0.1 Vmaxpu=1.1
New Load.L272  bus1=272  model=1 phases=1 conn=wye kv=0.24 kW=2.459083 kvar=0.819694 Vminpu=0.1 Vmaxpu=1.1
New Load.L273  bus1=273  model=1 phases=1 conn=wye kv=0.24 kW=2.342600 kvar=0.780867 Vminpu=0.1 Vmaxpu=1.1
New Load.L274  bus1=274  model=1 phases=1 conn=wye kv=0.24 kW=1.649800 kvar=0.549933 Vminpu=0.1 Vmaxpu=1.1
New Load.L275  bus1=275  model=1 phases=1 conn=wye kv=0.24 kW=1.673383 kvar=0.557794 Vminpu=0.1 Vmaxpu=1.1
New Load.L276  bus1=276  model=1 phases=1 conn=wye kv=0.24 kW=2.241883 kvar=0.747294 Vminpu=0.1 Vmaxpu=1.1
New Load.L277  bus1=277  model=1 phases=1 conn=wye kv=0.24 kW=3.261400 kvar=1.087133 Vminpu=0.1 Vmaxpu=1.1
New Load.L278  bus1=278  model=1 phases=1 conn=wye kv=0.24 kW=0.000000 kvar=0.000000 Vminpu=0.1 Vmaxpu=1.1
New Load.L279  bus1=279  model=1 phases=1 conn=wye kv=0.24 kW=0.000000 kvar=0.000000 Vminpu=0.1 Vmaxpu=1.1
New Load.L280  bus1=280  model=1 phases=1 conn=wye kv=0.24 kW=0.000000 kvar=0.000000 Vminpu=0.1 Vmaxpu=1.1
New Load.L281  bus1=281  model=1 phases=1 conn=wye kv=0.24 kW=0.000000 kvar=0.000000 Vminpu=0.1 Vmaxpu=1.1
New Load.L282  bus1=282  model=1 phases=1 conn=wye kv=0.24 kW=0.000000 kvar=0.000000 Vminpu=0.1 Vmaxpu=1.1