New Load.L1  bus1=1  model=1 phases=1 conn=wye kv=0.24 kW=0.000000 kvar=0.000000 Vminpu=0.1 Vmaxpu=1.1
New Load.L2  bus1=2  model=1 phases=1 conn=wye kv=0.24 kW=0.000000 kvar=0.000000 Vminpu=0.1 Vmaxpu=1.1
New Load.L3  bus1=3  model=1 phases=1 conn=wye kv=0.24 kW=0.000000 kvar=0.000000 Vminpu=0.1 Vmaxpu=1.1
New Load.L4  bus1=4  model=1 phases=1 conn=wye kv=0.24 kW=0.000000 kvar=0.000000 Vminpu=0.1 Vmaxpu=1.1
New Load.L5  bus1=5  model=1 phases=1 conn=wye kv=0.24 kW=0.000000 kvar=0.000000 Vminpu=0.1 Vmaxpu=1.1
New Load.L6  bus1=6  model=1 phases=1 conn=wye kv=0.24 kW=0.000000 kvar=0.000000 Vminpu=0.1 Vmaxpu=1.1
New Load.L7  bus1=7  model=1 phases=1 conn=wye kv=0.24 kW=0.000000 kvar=0.000000 Vminpu=0.1 Vmaxpu=1.1
New Load.L8  bus1=8  model=1 phases=1 conn=wye kv=0.24 kW=0.000000 kvar=0.000000 Vminpu=0.1 Vmaxpu=1.1
New Load.L9  bus1=9  model=1 phases=1 conn=wye kv=0.24 kW=0.000000 kvar=0.000000 Vminpu=0.1 Vmaxpu=1.1
New Load.L10  bus1=10  model=1 phases=1 conn=wye kv=0.24 kW=0.000000 kvar=0.000000 Vminpu=0.1 Vmaxpu=1.1
New Load.L11  bus1=11  model=1 phases=1 conn=wye kv=0.24 kW=0.000000 kvar=0.000000 Vminpu=0.1 Vmaxpu=1.1
New Load.L12  bus1=12  model=1 phases=1 conn=wye kv=0.24 kW=0.000000 kvar=0.000000 Vminpu=0.1 Vmaxpu=1.1
New Load.L13  bus1=13  model=1 phases=1 conn=wye kv=0.24 kW=0.000000 kvar=0.000000 Vminpu=0.1 Vmaxpu=1.1
New Load.L14  bus1=14  model=1 phases=1 conn=wye kv=0.24 kW=0.000000 kvar=0.000000 Vminpu=0.1 Vmaxpu=1.1
New Load.L15  bus1=15  model=1 phases=1 conn=wye kv=0.24 kW=0.000000 kvar=0.000000 Vminpu=0.1 Vmaxpu=1.1
New Load.L16  bus1=16  model=1 phases=1 conn=wye kv=0.24 kW=0.000000 kvar=0.000000 Vminpu=0.1 Vmaxpu=1.1
New Load.L17  bus1=17  model=1 phases=1 conn=wye kv=0.24 kW=0.000000 kvar=0.000000 Vminpu=0.1 Vmaxpu=1.1
New Load.L18  bus1=18  model=1 phases=1 conn=wye kv=0.24 kW=0.000000 kvar=0.000000 Vminpu=0.1 Vmaxpu=1.1
New Load.L19  bus1=19  model=1 phases=1 conn=wye kv=0.24 kW=0.000000 kvar=0.000000 Vminpu=0.1 Vmaxpu=1.1
New Load.L20  bus1=20  model=1 phases=1 conn=wye kv=0.24 kW=0.000000 kvar=0.000000 Vminpu=0.1 Vmaxpu=1.1
New Load.L21  bus1=21  model=1 phases=1 conn=wye kv=0.24 kW=0.000000 kvar=0.000000 Vminpu=0.1 Vmaxpu=1.1
New Load.L22  bus1=22  model=1 phases=1 conn=wye kv=0.24 kW=0.000000 kvar=0.000000 Vminpu=0.1 Vmaxpu=1.1
New Load.L23  bus1=23  model=1 phases=1 conn=wye kv=0.24 kW=0.000000 kvar=0.000000 Vminpu=0.1 Vmaxpu=1.1
New Load.L24  bus1=24  model=1 phases=1 conn=wye kv=0.24 kW=0.000000 kvar=0.000000 Vminpu=0.1 Vmaxpu=1.1
New Load.L25  bus1=25  model=1 phases=1 conn=wye kv=0.24 kW=0.000000 kvar=0.000000 Vminpu=0.1 Vmaxpu=1.1
New Load.L26  bus1=26  model=1 phases=1 conn=wye kv=0.24 kW=0.000000 kvar=0.000000 Vminpu=0.1 Vmaxpu=1.1
New Load.L27  bus1=27  model=1 phases=1 conn=wye kv=0.24 kW=0.000000 kvar=0.000000 Vminpu=0.1 Vmaxpu=1.1
New Load.L28  bus1=28  model=1 phases=1 conn=wye kv=0.24 kW=0.000000 kvar=0.000000 Vminpu=0.1 Vmaxpu=1.1
New Load.L29  bus1=29  model=1 phases=1 conn=wye kv=0.24 kW=0.000000 kvar=0.000000 Vminpu=0.1 Vmaxpu=1.1
New Load.L30  bus1=30  model=1 phases=1 conn=wye kv=0.24 kW=0.000000 kvar=0.000000 Vminpu=0.1 Vmaxpu=1.1
New Load.L31  bus1=31  model=1 phases=1 conn=wye kv=0.24 kW=0.000000 kvar=0.000000 Vminpu=0.1 Vmaxpu=1.1
New Load.L32  bus1=32  model=1 phases=1 conn=wye kv=0.24 kW=0.000000 kvar=0.000000 Vminpu=0.1 Vmaxpu=1.1
New Load.L33  bus1=33  model=1 phases=1 conn=wye kv=0.24 kW=0.000000 kvar=0.000000 Vminpu=0.1 Vmaxpu=1.1
New Load.L34  bus1=34  model=1 phases=1 conn=wye kv=0.24 kW=0.000000 kvar=0.000000 Vminpu=0.1 Vmaxpu=1.1
New Load.L35  bus1=35  model=1 phases=1 conn=wye kv=0.24 kW=0.000000 kvar=0.000000 Vminpu=0.1 Vmaxpu=1.1
New Load.L36  bus1=36  model=1 phases=1 conn=wye kv=0.24 kW=0.000000 kvar=0.000000 Vminpu=0.1 Vmaxpu=1.1
New Load.L37  bus1=37  model=1 phases=1 conn=wye kv=0.24 kW=0.000000 kvar=0.000000 Vminpu=0.1 Vmaxpu=1.1
New Load.L38  bus1=38  model=1 phases=1 conn=wye kv=0.24 kW=0.000000 kvar=0.000000 Vminpu=0.1 Vmaxpu=1.1
New Load.L39  bus1=39  model=1 phases=1 conn=wye kv=0.24 kW=0.000000 kvar=0.000000 Vminpu=0.1 Vmaxpu=1.1
New Load.L40  bus1=40  model=1 phases=1 conn=wye kv=0.24 kW=0.000000 kvar=0.000000 Vminpu=0.1 Vmaxpu=1.1
New Load.L41  bus1=41  model=1 phases=1 conn=wye kv=0.24 kW=6.414700 kvar=2.138233 Vminpu=0.1 Vmaxpu=1.1
New Load.L42  bus1=42  model=1 phases=1 conn=wye kv=0.24 kW=6.227900 kvar=2.075967 Vminpu=0.1 Vmaxpu=1.1
New Load.L43  bus1=43  model=1 phases=1 conn=wye kv=0.24 kW=4.194700 kvar=1.398233 Vminpu=0.1 Vmaxpu=1.1
New Load.L44  bus1=44  model=1 phases=1 conn=wye kv=0.24 kW=6.362200 kvar=2.120733 Vminpu=0.1 Vmaxpu=1.1
New Load.L45  bus1=45  model=1 phases=1 conn=wye kv=0.24 kW=1.558900 kvar=0.519633 Vminpu=0.1 Vmaxpu=1.1
New Load.L46  bus1=46  model=1 phases=1 conn=wye kv=0.24 kW=1.803400 kvar=0.601133 Vminpu=0.1 Vmaxpu=1.1
New Load.L47  bus1=47  model=1 phases=1 conn=wye kv=0.24 kW=6.770200 kvar=2.256733 Vminpu=0.1 Vmaxpu=1.1
New Load.L48  bus1=48  model=1 phases=1 conn=wye kv=0.24 kW=0.941370 kvar=0.313790 Vminpu=0.1 Vmaxpu=1.1
New Load.L49  bus1=49  model=1 phases=1 conn=wye kv=0.24 kW=1.019300 kvar=0.339767 Vminpu=0.1 Vmaxpu=1.1
New Load.L50  bus1=50  model=1 phases=1 conn=wye kv=0.24 kW=3.488400 kvar=1.162800 Vminpu=0.1 Vmaxpu=1.1
New Load.L51  bus1=51  model=1 phases=1 conn=wye kv=0.24 kW=1.865300 kvar=0.621767 Vminpu=0.1 Vmaxpu=1.1
New Load.L52  bus1=52  model=1 phases=1 conn=wye kv=0.24 kW=5.127200 kvar=1.709067 Vminpu=0.1 Vmaxpu=1.1
New Load.L53  bus1=53  model=1 phases=1 conn=wye kv=0.24 kW=0.000000 kvar=0.000000 Vminpu=0.1 Vmaxpu=1.1
New Load.L54  bus1=54  model=1 phases=1 conn=wye kv=0.24 kW=0.000000 kvar=0.000000 Vminpu=0.1 Vmaxpu=1.1
New Load.L55  bus1=55  model=1 phases=1 conn=wye kv=0.24 kW=0.000000 kvar=0.000000 Vminpu=0.1 Vmaxpu=1.1
New Load.L56  bus1=56  model=1 phases=1 conn=wye kv=0.24 kW=0.000000 kvar=0.000000 Vminpu=0.1 Vmaxpu=1.1
New Load.L57  bus1=57  model=1 phases=1 conn=wye kv=0.24 kW=0.000000 kvar=0.000000 Vminpu=0.1 Vmaxpu=1.1
New Load.L58  bus1=58  model=1 phases=1 conn=wye kv=0.24 kW=0.000000 kvar=0.000000 Vminpu=0.1 Vmaxpu=1.1
New Load.L59  bus1=59  model=1 phases=1 conn=wye kv=0.24 kW=5.239600 kvar=1.746533 Vminpu=0.1 Vmaxpu=1.1
New Load.L60  bus1=60  model=1 phases=1 conn=wye kv=0.24 kW=7.407100 kvar=2.469033 Vminpu=0.1 Vmaxpu=1.1
New Load.L61  bus1=61  model=1 phases=1 conn=wye kv=0.24 kW=1.448600 kvar=0.482867 Vminpu=0.1 Vmaxpu=1.1
New Load.L62  bus1=62  model=1 phases=1 conn=wye kv=0.24 kW=1.448100 kvar=0.482700 Vminpu=0.1 Vmaxpu=1.1
New Load.L63  bus1=63  model=1 phases=1 conn=wye kv=0.24 kW=1.194900 kvar=0.398300 Vminpu=0.1 Vmaxpu=1.1
New Load.L64  bus1=64  model=1 phases=1 conn=wye kv=0.24 kW=9.829400 kvar=3.276467 Vminpu=0.1 Vmaxpu=1.1
New Load.L65  bus1=65  model=1 phases=1 conn=wye kv=0.24 kW=4.394000 kvar=1.464667 Vminpu=0.1 Vmaxpu=1.1
New Load.L66  bus1=66  model=1 phases=1 conn=wye kv=0.24 kW=4.671500 kvar=1.557167 Vminpu=0.1 Vmaxpu=1.1
New Load.L67  bus1=67  model=1 phases=1 conn=wye kv=0.24 kW=2.796600 kvar=0.932200 Vminpu=0.1 Vmaxpu=1.1
New Load.L68  bus1=68  model=1 phases=1 conn=wye kv=0.24 kW=1.651300 kvar=0.550433 Vminpu=0.1 Vmaxpu=1.1
New Load.L69  bus1=69  model=1 phases=1 conn=wye kv=0.24 kW=0.000000 kvar=0.000000 Vminpu=0.1 Vmaxpu=1.1
New Load.L70  bus1=70  model=1 phases=1 conn=wye kv=0.24 kW=0.000000 kvar=0.000000 Vminpu=0.1 Vmaxpu=1.1
New Load.L71  bus1=71  model=1 phases=1 conn=wye kv=0.24 kW=0.000000 kvar=0.000000 Vminpu=0.1 Vmaxpu=1.1
New Load.L72  bus1=72  model=1 phases=1 conn=wye kv=0.24 kW=0.000000 kvar=0.000000 Vminpu=0.1 Vmaxpu=1.1
New Load.L73  bus1=73  model=1 phases=1 conn=wye kv=0.24 kW=0.000000 kvar=0.000000 Vminpu=0.1 Vmaxpu=1.1
New Load.L74  bus1=74  model=1 phases=1 conn=wye kv=0.24 kW=1.377400 kvar=0.459133 Vminpu=0.1 Vmaxpu=1.1
New Load.L75  bus1=75  model=1 phases=1 conn=wye kv=0.24 kW=1.273300 kvar=0.424433 Vminpu=0.1 Vmaxpu=1.1
New Load.L76  bus1=76  model=1 phases=1 conn=wye kv=0.24 kW=2.122700 kvar=0.707567 Vminpu=0.1 Vmaxpu=1.1
New Load.L77  bus1=77  model=1 phases=1 conn=wye kv=0.24 kW=1.645000 kvar=0.548333 Vminpu=0.1 Vmaxpu=1.1
New Load.L78  bus1=78  model=1 phases=1 conn=wye kv=0.24 kW=1.129100 kvar=0.376367 Vminpu=0.1 Vmaxpu=1.1
New Load.L79  bus1=79  model=1 phases=1 conn=wye kv=0.24 kW=2.167800 kvar=0.722600 Vminpu=0.1 Vmaxpu=1.1
New Load.L80  bus1=80  model=1 phases=1 conn=wye kv=0.24 kW=2.250200 kvar=0.750067 Vminpu=0.1 Vmaxpu=1.1
New Load.L81  bus1=81  model=1 phases=1 conn=wye kv=0.24 kW=1.536900 kvar=0.512300 Vminpu=0.1 Vmaxpu=1.1
New Load.L82  bus1=82  model=1 phases=1 conn=wye kv=0.24 kW=0.000000 kvar=0.000000 Vminpu=0.1 Vmaxpu=1.1
New Load.L83  bus1=83  model=1 phases=1 conn=wye kv=0.24 kW=0.000000 kvar=0.000000 Vminpu=0.1 Vmaxpu=1.1
New Load.L84  bus1=84  model=1 phases=1 conn=wye kv=0.24 kW=0.000000 kvar=0.000000 Vminpu=0.1 Vmaxpu=1.1
New Load.L85  bus1=85  model=1 phases=1 conn=wye kv=0.24 kW=0.000000 kvar=0.000000 Vminpu=0.1 Vmaxpu=1.1
New Load.L86  bus1=86  model=1 phases=1 conn=wye kv=0.24 kW=0.000000 kvar=0.000000 Vminpu=0.1 Vmaxpu=1.1
New Load.L87  bus1=87  model=1 phases=1 conn=wye kv=0.24 kW=1.072700 kvar=0.357567 Vminpu=0.1 Vmaxpu=1.1
New Load.L88  bus1=88  model=1 phases=1 conn=wye kv=0.24 kW=2.627400 kvar=0.875800 Vminpu=0.1 Vmaxpu=1.1
New Load.L89  bus1=89  model=1 phases=1 conn=wye kv=0.24 kW=0.651470 kvar=0.217157 Vminpu=0.1 Vmaxpu=1.1
New Load.L90  bus1=90  model=1 phases=1 conn=wye kv=0.24 kW=1.287700 kvar=0.429233 Vminpu=0.1 Vmaxpu=1.1
New Load.L91  bus1=91  model=1 phases=1 conn=wye kv=0.24 kW=1.364000 kvar=0.454667 Vminpu=0.1 Vmaxpu=1.1
New Load.L92  bus1=92  model=1 phases=1 conn=wye kv=0.24 kW=0.686420 kvar=0.228807 Vminpu=0.1 Vmaxpu=1.1
New Load.L93  bus1=93  model=1 phases=1 conn=wye kv=0.24 kW=1.379200 kvar=0.459733 Vminpu=0.1 Vmaxpu=1.1
New Load.L94  bus1=94  model=1 phases=1 conn=wye kv=0.24 kW=2.953000 kvar=0.984333 Vminpu=0.1 Vmaxpu=1.1
New Load.L95  bus1=95  model=1 phases=1 conn=wye kv=0.24 kW=0.000000 kvar=0.000000 Vminpu=0.1 Vmaxpu=1.1
New Load.L96  bus1=96  model=1 phases=1 conn=wye kv=0.24 kW=0.000000 kvar=0.000000 Vminpu=0.1 Vmaxpu=1.1
New Load.L97  bus1=97  model=1 phases=1 conn=wye kv=0.24 kW=0.000000 kvar=0.000000 Vminpu=0.1 Vmaxpu=1.1
New Load.L98  bus1=98  model=1 phases=1 conn=wye kv=0.24 kW=0.000000 kvar=0.000000 Vminpu=0.1 Vmaxpu=1.1
New Load.L99  bus1=99  model=1 phases=1 conn=wye kv=0.24 kW=0.000000 kvar=0.000000 Vminpu=0.1 Vmaxpu=1.1
New Load.L100  bus1=100  model=1 phases=1 conn=wye kv=0.24 kW=1.334100 kvar=0.444700 Vminpu=0.1 Vmaxpu=1.1
New Load.L101  bus1=101  model=1 phases=1 conn=wye kv=0.24 kW=5.167700 kvar=1.722567 Vminpu=0.1 Vmaxpu=1.1
New Load.L102  bus1=102  model=1 phases=1 conn=wye kv=0.24 kW=3.115900 kvar=1.038633 Vminpu=0.1 Vmaxpu=1.1
New Load.L103  bus1=103  model=1 phases=1 conn=wye kv=0.24 kW=0.687380 kvar=0.229127 Vminpu=0.1 Vmaxpu=1.1
New Load.L104  bus1=104  model=1 phases=1 conn=wye kv=0.24 kW=2.444700 kvar=0.814900 Vminpu=0.1 Vmaxpu=1.1
New Load.L105  bus1=105  model=1 phases=1 conn=wye kv=0.24 kW=2.261200 kvar=0.753733 Vminpu=0.1 Vmaxpu=1.1
New Load.L106  bus1=106  model=1 phases=1 conn=wye kv=0.24 kW=2.788700 kvar=0.929567 Vminpu=0.1 Vmaxpu=1.1
New Load.L107  bus1=107  model=1 phases=1 conn=wye kv=0.24 kW=4.440200 kvar=1.480067 Vminpu=0.1 Vmaxpu=1.1
New Load.L108  bus1=108  model=1 phases=1 conn=wye kv=0.24 kW=0.000000 kvar=0.000000 Vminpu=0.1 Vmaxpu=1.1
New Load.L109  bus1=109  model=1 phases=1 conn=wye kv=0.24 kW=0.000000 kvar=0.000000 Vminpu=0.1 Vmaxpu=1.1
New Load.L110  bus1=110  model=1 phases=1 conn=wye kv=0.24 kW=0.000000 kvar=0.000000 Vminpu=0.1 Vmaxpu=1.1
New Load.L111  bus1=111  model=1 phases=1 conn=wye kv=0.24 kW=0.000000 kvar=0.000000 Vminpu=0.1 Vmaxpu=1.1
New Load.L112  bus1=112  model=1 phases=1 conn=wye kv=0.24 kW=0.000000 kvar=0.000000 Vminpu=0.1 Vmaxpu=1.1
New Load.L113  bus1=113  model=1 phases=1 conn=wye kv=0.24 kW=0.000000 kvar=0.000000 Vminpu=0.1 Vmaxpu=1.1
New Load.L114  bus1=114  model=1 phases=1 conn=wye kv=0.24 kW=0.000000 kvar=0.000000 Vminpu=0.1 Vmaxpu=1.1
New Load.L115  bus1=115  model=1 phases=1 conn=wye kv=0.24 kW=2.355600 kvar=0.785200 Vminpu=0.1 Vmaxpu=1.1
New Load.L116  bus1=116  model=1 phases=1 conn=wye kv=0.24 kW=0.924250 kvar=0.308083 Vminpu=0.1 Vmaxpu=1.1
New Load.L117  bus1=117  model=1 phases=1 conn=wye kv=0.24 kW=2.516500 kvar=0.838833 Vminpu=0.1 Vmaxpu=1.1
New Load.L118  bus1=118  model=1 phases=1 conn=wye kv=0.24 kW=2.438000 kvar=0.812667 Vminpu=0.1 Vmaxpu=1.1
New Load.L119  bus1=119  model=1 phases=1 conn=wye kv=0.24 kW=2.953300 kvar=0.984433 Vminpu=0.1 Vmaxpu=1.1
New Load.L120  bus1=120  model=1 phases=1 conn=wye kv=0.24 kW=1.511800 kvar=0.503933 Vminpu=0.1 Vmaxpu=1.1
New Load.L121  bus1=121  model=1 phases=1 conn=wye kv=0.24 kW=2.203500 kvar=0.734500 Vminpu=0.1 Vmaxpu=1.1
New Load.L122  bus1=122  model=1 phases=1 conn=wye kv=0.24 kW=2.629000 kvar=0.876333 Vminpu=0.1 Vmaxpu=1.1
New Load.L123  bus1=123  model=1 phases=1 conn=wye kv=0.24 kW=1.391100 kvar=0.463700 Vminpu=0.1 Vmaxpu=1.1
New Load.L124  bus1=124  model=1 phases=1 conn=wye kv=0.24 kW=2.208800 kvar=0.736267 Vminpu=0.1 Vmaxpu=1.1
New Load.L125  bus1=125  model=1 phases=1 conn=wye kv=0.24 kW=1.986600 kvar=0.662200 Vminpu=0.1 Vmaxpu=1.1
New Load.L126  bus1=126  model=1 phases=1 conn=wye kv=0.24 kW=1.765900 kvar=0.588633 Vminpu=0.1 Vmaxpu=1.1
New Load.L127  bus1=127  model=1 phases=1 conn=wye kv=0.24 kW=0.000000 kvar=0.000000 Vminpu=0.1 Vmaxpu=1.1
New Load.L128  bus1=128  model=1 phases=1 conn=wye kv=0.24 kW=0.000000 kvar=0.000000 Vminpu=0.1 Vmaxpu=1.1
New Load.L129  bus1=129  model=1 phases=1 conn=wye kv=0.24 kW=0.000000 kvar=0.000000 Vminpu=0.1 Vmaxpu=1.1
New Load.L130  bus1=130  model=1 phases=1 conn=wye kv=0.24 kW=0.000000 kvar=0.000000 Vminpu=0.1 Vmaxpu=1.1
New Load.L131  bus1=131  model=1 phases=1 conn=wye kv=0.24 kW=0.000000 kvar=0.000000 Vminpu=0.1 Vmaxpu=1.1
New Load.L132  bus1=132  model=1 phases=1 conn=wye kv=0.24 kW=0.000000 kvar=0.000000 Vminpu=0.1 Vmaxpu=1.1
New Load.L133  bus1=133  model=1 phases=1 conn=wye kv=0.24 kW=0.000000 kvar=0.000000 Vminpu=0.1 Vmaxpu=1.1
New Load.L134  bus1=134  model=1 phases=1 conn=wye kv=0.24 kW=2.132800 kvar=0.710933 Vminpu=0.1 Vmaxpu=1.1
New Load.L135  bus1=135  model=1 phases=1 conn=wye kv=0.24 kW=1.381900 kvar=0.460633 Vminpu=0.1 Vmaxpu=1.1
New Load.L136  bus1=136  model=1 phases=1 conn=wye kv=0.24 kW=3.016400 kvar=1.005467 Vminpu=0.1 Vmaxpu=1.1
New Load.L137  bus1=137  model=1 phases=1 conn=wye kv=0.24 kW=2.179000 kvar=0.726333 Vminpu=0.1 Vmaxpu=1.1
New Load.L138  bus1=138  model=1 phases=1 conn=wye kv=0.24 kW=3.197100 kvar=1.065700 Vminpu=0.1 Vmaxpu=1.1
New Load.L139  bus1=139  model=1 phases=1 conn=wye kv=0.24 kW=1.685000 kvar=0.561667 Vminpu=0.1 Vmaxpu=1.1
New Load.L140  bus1=140  model=1 phases=1 conn=wye kv=0.24 kW=2.607800 kvar=0.869267 Vminpu=0.1 Vmaxpu=1.1
New Load.L141  bus1=141  model=1 phases=1 conn=wye kv=0.24 kW=2.627100 kvar=0.875700 Vminpu=0.1 Vmaxpu=1.1
New Load.L142  bus1=142  model=1 phases=1 conn=wye kv=0.24 kW=1.601300 kvar=0.533767 Vminpu=0.1 Vmaxpu=1.1
New Load.L143  bus1=143  model=1 phases=1 conn=wye kv=0.24 kW=1.687400 kvar=0.562467 Vminpu=0.1 Vmaxpu=1.1
New Load.L144  bus1=144  model=1 phases=1 conn=wye kv=0.24 kW=2.099200 kvar=0.699733 Vminpu=0.1 Vmaxpu=1.1
New Load.L145  bus1=145  model=1 phases=1 conn=wye kv=0.24 kW=1.584500 kvar=0.528167 Vminpu=0.1 Vmaxpu=1.1
New Load.L146  bus1=146  model=1 phases=1 conn=wye kv=0.24 kW=0.000000 kvar=0.000000 Vminpu=0.1 Vmaxpu=1.1
New Load.L147  bus1=147  model=1 phases=1 conn=wye kv=0.24 kW=0.000000 kvar=0.000000 Vminpu=0.1 Vmaxpu=1.1
New Load.L148  bus1=148  model=1 phases=1 conn=wye kv=0.24 kW=0.000000 kvar=0.000000 Vminpu=0.1 Vmaxpu=1.1
New Load.L149  bus1=149  model=1 phases=1 conn=wye kv=0.24 kW=0.000000 kvar=0.000000 Vminpu=0.1 Vmaxpu=1.1
New Load.L150  bus1=150  model=1 phases=1 conn=wye kv=0.24 kW=0.000000 kvar=0.000000 Vminpu=0.1 Vmaxpu=1.1
New Load.L151  bus1=151  model=1 phases=1 conn=wye kv=0.24 kW=0.000000 kvar=0.000000 Vminpu=0.1 Vmaxpu=1.1
New Load.L152  bus1=152  model=1 phases=1 conn=wye kv=0.24 kW=0.000000 kvar=0.000000 Vminpu=0.1 Vmaxpu=1.1
New Load.L153  bus1=153  model=1 phases=1 conn=wye kv=0.24 kW=1.604700 kvar=0.534900 Vminpu=0.1 Vmaxpu=1.1
New Load.L154  bus1=154  model=1 phases=1 conn=wye kv=0.24 kW=1.502000 kvar=0.500667 Vminpu=0.1 Vmaxpu=1.1
New Load.L155  bus1=155  model=1 phases=1 conn=wye kv=0.24 kW=2.131100 kvar=0.710367 Vminpu=0.1 Vmaxpu=1.1
New Load.L156  bus1=156  model=1 phases=1 conn=wye kv=0.24 kW=1.990900 kvar=0.663633 Vminpu=0.1 Vmaxpu=1.1
New Load.L157  bus1=157  model=1 phases=1 conn=wye kv=0.24 kW=2.415400 kvar=0.805133 Vminpu=0.1 Vmaxpu=1.1
New Load.L158  bus1=158  model=1 phases=1 conn=wye kv=0.24 kW=2.264800 kvar=0.754933 Vminpu=0.1 Vmaxpu=1.1
New Load.L159  bus1=159  model=1 phases=1 conn=wye kv=0.24 kW=2.705300 kvar=0.901767 Vminpu=0.1 Vmaxpu=1.1
New Load.L160  bus1=160  model=1 phases=1 conn=wye kv=0.24 kW=1.686300 kvar=0.562100 Vminpu=0.1 Vmaxpu=1.1
New Load.L161  bus1=161  model=1 phases=1 conn=wye kv=0.24 kW=1.331400 kvar=0.443800 Vminpu=0.1 Vmaxpu=1.1
New Load.L162  bus1=162  model=1 phases=1 conn=wye kv=0.24 kW=1.579600 kvar=0.526533 Vminpu=0.1 Vmaxpu=1.1
New Load.L163  bus1=163  model=1 phases=1 conn=wye kv=0.24 kW=2.734600 kvar=0.911533 Vminpu=0.1 Vmaxpu=1.1
New Load.L164  bus1=164  model=1 phases=1 conn=wye kv=0.24 kW=2.000700 kvar=0.666900 Vminpu=0.1 Vmaxpu=1.1
New Load.L165  bus1=165  model=1 phases=1 conn=wye kv=0.24 kW=0.000000 kvar=0.000000 Vminpu=0.1 Vmaxpu=1.1
New Load.L166  bus1=166  model=1 phases=1 conn=wye kv=0.24 kW=0.000000 kvar=0.000000 Vminpu=0.1 Vmaxpu=1.1
New Load.L167  bus1=167  model=1 phases=1 conn=wye kv=0.24 kW=0.000000 kvar=0.000000 Vminpu=0.1 Vmaxpu=1.1
New Load.L168  bus1=168  model=1 phases=1 conn=wye kv=0.24 kW=0.000000 kvar=0.000000 Vminpu=0.1 Vmaxpu=1.1
New Load.L169  bus1=169  model=1 phases=1 conn=wye kv=0.24 kW=0.000000 kvar=0.000000 Vminpu=0.1 Vmaxpu=1.1
New Load.L170  bus1=170  model=1 phases=1 conn=wye kv=0.24 kW=0.000000 kvar=0.000000 Vminpu=0.1 Vmaxpu=1.1
New Load.L171  bus1=171  model=1 phases=1 conn=wye kv=0.24 kW=0.000000 kvar=0.000000 Vminpu=0.1 Vmaxpu=1.1
New Load.L172  bus1=172  model=1 phases=1 conn=wye kv=0.24 kW=2.044700 kvar=0.681567 Vminpu=0.1 Vmaxpu=1.1
New Load.L173  bus1=173  model=1 phases=1 conn=wye kv=0.24 kW=2.418500 kvar=0.806167 Vminpu=0.1 Vmaxpu=1.1
New Load.L174  bus1=174  model=1 phases=1 conn=wye kv=0.24 kW=2.209500 kvar=0.736500 Vminpu=0.1 Vmaxpu=1.1
New Load.L175  bus1=175  model=1 phases=1 conn=wye kv=0.24 kW=2.060500 kvar=0.686833 Vminpu=0.1 Vmaxpu=1.1
New Load.L176  bus1=176  model=1 phases=1 conn=wye kv=0.24 kW=2.126700 kvar=0.708900 Vminpu=0.1 Vmaxpu=1.1
New Load.L177  bus1=177  model=1 phases=1 conn=wye kv=0.24 kW=2.163100 kvar=0.721033 Vminpu=0.1 Vmaxpu=1.1
New Load.L178  bus1=178  model=1 phases=1 conn=wye kv=0.24 kW=2.385200 kvar=0.795067 Vminpu=0.1 Vmaxpu=1.1
New Load.L179  bus1=179  model=1 phases=1 conn=wye kv=0.24 kW=2.071400 kvar=0.690467 Vminpu=0.1 Vmaxpu=1.1
New Load.L180  bus1=180  model=1 phases=1 conn=wye kv=0.24 kW=2.222100 kvar=0.740700 Vminpu=0.1 Vmaxpu=1.1
New Load.L181  bus1=181  model=1 phases=1 conn=wye kv=0.24 kW=1.323900 kvar=0.441300 Vminpu=0.1 Vmaxpu=1.1
New Load.L182  bus1=182  model=1 phases=1 conn=wye kv=0.24 kW=2.250500 kvar=0.750167 Vminpu=0.1 Vmaxpu=1.1
New Load.L183  bus1=183  model=1 phases=1 conn=wye kv=0.24 kW=2.056700 kvar=0.685567 Vminpu=0.1 Vmaxpu=1.1
New Load.L184  bus1=184  model=1 phases=1 conn=wye kv=0.24 kW=0.000000 kvar=0.000000 Vminpu=0.1 Vmaxpu=1.1
New Load.L185  bus1=185  model=1 phases=1 conn=wye kv=0.24 kW=0.000000 kvar=0.000000 Vminpu=0.1 Vmaxpu=1.1
New Load.L186  bus1=186  model=1 phases=1 conn=wye kv=0.24 kW=0.000000 kvar=0.000000 Vminpu=0.1 Vmaxpu=1.1
New Load.L187  bus1=187  model=1 phases=1 conn=wye kv=0.24 kW=0.000000 kvar=0.000000 Vminpu=0.1 Vmaxpu=1.1
New Load.L188  bus1=188  model=1 phases=1 conn=wye kv=0.24 kW=0.000000 kvar=0.000000 Vminpu=0.1 Vmaxpu=1.1
New Load.L189  bus1=189  model=1 phases=1 conn=wye kv=0.24 kW=1.795700 kvar=0.598567 Vminpu=0.1 Vmaxpu=1.1
New Load.L190  bus1=190  model=1 phases=1 conn=wye kv=0.24 kW=2.122400 kvar=0.707467 Vminpu=0.1 Vmaxpu=1.1
New Load.L191  bus1=191  model=1 phases=1 conn=wye kv=0.24 kW=1.511200 kvar=0.503733 Vminpu=0.1 Vmaxpu=1.1
New Load.L192  bus1=192  model=1 phases=1 conn=wye kv=0.24 kW=2.105200 kvar=0.701733 Vminpu=0.1 Vmaxpu=1.1
New Load.L193  bus1=193  model=1 phases=1 conn=wye kv=0.24 kW=2.929400 kvar=0.976467 Vminpu=0.1 Vmaxpu=1.1
New Load.L194  bus1=194  model=1 phases=1 conn=wye kv=0.24 kW=2.503700 kvar=0.834567 Vminpu=0.1 Vmaxpu=1.1
New Load.L195  bus1=195  model=1 phases=1 conn=wye kv=0.24 kW=2.146200 kvar=0.715400 Vminpu=0.1 Vmaxpu=1.1
New Load.L196  bus1=196  model=1 phases=1 conn=wye kv=0.24 kW=5.490900 kvar=1.830300 Vminpu=0.1 Vmaxpu=1.1
New Load.L197  bus1=197  model=1 phases=1 conn=wye kv=0.24 kW=0.000000 kvar=0.000000 Vminpu=0.1 Vmaxpu=1.1
New Load.L198  bus1=198  model=1 phases=1 conn=wye kv=0.24 kW=0.000000 kvar=0.000000 Vminpu=0.1 Vmaxpu=1.1
New Load.L199  bus1=199  model=1 phases=1 conn=wye kv=0.24 kW=0.000000 kvar=0.000000 Vminpu=0.1 Vmaxpu=1.1
New Load.L200  bus1=200  model=1 phases=1 conn=wye kv=0.24 kW=0.000000 kvar=0.000000 Vminpu=0.1 Vmaxpu=1.1
New Load.L201  bus1=201  model=1 phases=1 conn=wye kv=0.24 kW=0.000000 kvar=0.000000 Vminpu=0.1 Vmaxpu=1.1
New Load.L202  bus1=202  model=1 phases=1 conn=wye kv=0.24 kW=1.898900 kvar=0.632967 Vminpu=0.1 Vmaxpu=1.1
New Load.L203  bus1=203  model=1 phases=1 conn=wye kv=0.24 kW=2.061100 kvar=0.687033 Vminpu=0.1 Vmaxpu=1.1
New Load.L204  bus1=204  model=1 phases=1 conn=wye kv=0.24 kW=2.121000 kvar=0.707000 Vminpu=0.1 Vmaxpu=1.1
New Load.L205  bus1=205  model=1 phases=1 conn=wye kv=0.24 kW=2.132800 kvar=0.710933 Vminpu=0.1 Vmaxpu=1.1
New Load.L206  bus1=206  model=1 phases=1 conn=wye kv=0.24 kW=2.186900 kvar=0.728967 Vminpu=0.1 Vmaxpu=1.1
New Load.L207  bus1=207  model=1 phases=1 conn=wye kv=0.24 kW=5.086000 kvar=1.695333 Vminpu=0.1 Vmaxpu=1.1
New Load.L208  bus1=208  model=1 phases=1 conn=wye kv=0.24 kW=0.912180 kvar=0.304060 Vminpu=0.1 Vmaxpu=1.1
New Load.L209  bus1=209  model=1 phases=1 conn=wye kv=0.24 kW=2.310100 kvar=0.770033 Vminpu=0.1 Vmaxpu=1.1
New Load.L210  bus1=210  model=1 phases=1 conn=wye kv=0.24 kW=0.000000 kvar=0.000000 Vminpu=0.1 Vmaxpu=1.1
New Load.L211  bus1=211  model=1 phases=1 conn=wye kv=0.24 kW=0.000000 kvar=0.000000 Vminpu=0.1 Vmaxpu=1.1
New Load.L212  bus1=212  model=1 phases=1 conn=wye kv=0.24 kW=0.000000 kvar=0.000000 Vminpu=0.1 Vmaxpu=1.1
New Load.L213  bus1=213  model=1 phases=1 conn=wye kv=0.24 kW=0.000000 kvar=0.000000 Vminpu=0.1 Vmaxpu=1.1
New Load.L214  bus1=214  model=1 phases=1 conn=wye kv=0.24 kW=2.444100 kvar=0.814700 Vminpu=0.1 Vmaxpu=1.1
New Load.L215  bus1=215  model=1 phases=1 conn=wye kv=0.24 kW=1.352100 kvar=0.450700 Vminpu=0.1 Vmaxpu=1.1
New Load.L216  bus1=216  model=1 phases=1 conn=wye kv=0.24 kW=1.099400 kvar=0.366467 Vminpu=0.1 Vmaxpu=1.1
New Load.L217  bus1=217  model=1 phases=1 conn=wye kv=0.24 kW=1.075100 kvar=0.358367 Vminpu=0.1 Vmaxpu=1.1
New Load.L218  bus1=218  model=1 phases=1 conn=wye kv=0.24 kW=3.375700 kvar=1.125233 Vminpu=0.1 Vmaxpu=1.1
New Load.L219  bus1=219  model=1 phases=1 conn=wye kv=0.24 kW=2.486800 kvar=0.828933 Vminpu=0.1 Vmaxpu=1.1
New Load.L220  bus1=220  model=1 phases=1 conn=wye kv=0.24 kW=0.000000 kvar=0.000000 Vminpu=0.1 Vmaxpu=1.1
New Load.L221  bus1=221  model=1 phases=1 conn=wye kv=0.24 kW=0.000000 kvar=0.000000 Vminpu=0.1 Vmaxpu=1.1
New Load.L222  bus1=222  model=1 phases=1 conn=wye kv=0.24 kW=0.000000 kvar=0.000000 Vminpu=0.1 Vmaxpu=1.1
New Load.L223  bus1=223  model=1 phases=1 conn=wye kv=0.24 kW=0.000000 kvar=0.000000 Vminpu=0.1 Vmaxpu=1.1
New Load.L224  bus1=224  model=1 phases=1 conn=wye kv=0.24 kW=0.000000 kvar=0.000000 Vminpu=0.1 Vmaxpu=1.1
New Load.L225  bus1=225  model=1 phases=1 conn=wye kv=0.24 kW=1.639800 kvar=0.546600 Vminpu=0.1 Vmaxpu=1.1
New Load.L226  bus1=226  model=1 phases=1 conn=wye kv=0.24 kW=2.461100 kvar=0.820367 Vminpu=0.1 Vmaxpu=1.1
New Load.L227  bus1=227  model=1 phases=1 conn=wye kv=0.24 kW=2.674900 kvar=0.891633 Vminpu=0.1 Vmaxpu=1.1
New Load.L228  bus1=228  model=1 phases=1 conn=wye kv=0.24 kW=2.173300 kvar=0.724433 Vminpu=0.1 Vmaxpu=1.1
New Load.L229  bus1=229  model=1 phases=1 conn=wye kv=0.24 kW=2.087100 kvar=0.695700 Vminpu=0.1 Vmaxpu=1.1
New Load.L230  bus1=230  model=1 phases=1 conn=wye kv=0.24 kW=2.361700 kvar=0.787233 Vminpu=0.1 Vmaxpu=1.1
New Load.L231  bus1=231  model=1 phases=1 conn=wye kv=0.24 kW=2.211700 kvar=0.737233 Vminpu=0.1 Vmaxpu=1.1
New Load.L232  bus1=232  model=1 phases=1 conn=wye kv=0.24 kW=1.629500 kvar=0.543167 Vminpu=0.1 Vmaxpu=1.1
New Load.L233  bus1=233  model=1 phases=1 conn=wye kv=0.24 kW=0.000000 kvar=0.000000 Vminpu=0.1 Vmaxpu=1.1
New Load.L234  bus1=234  model=1 phases=1 conn=wye kv=0.24 kW=0.000000 kvar=0.000000 Vminpu=0.1 Vmaxpu=1.1
New Load.L235  bus1=235  model=1 phases=1 conn=wye kv=0.24 kW=0.000000 kvar=0.000000 Vminpu=0.1 Vmaxpu=1.1
New Load.L236  bus1=236  model=1 phases=1 conn=wye kv=0.24 kW=0.000000 kvar=0.000000 Vminpu=0.1 Vmaxpu=1.1
New Load.L237  bus1=237  model=1 phases=1 conn=wye kv=0.24 kW=0.000000 kvar=0.000000 Vminpu=0.1 Vmaxpu=1.1
New Load.L238  bus1=238  model=1 phases=1 conn=wye kv=0.24 kW=3.397100 kvar=1.132367 Vminpu=0.1 Vmaxpu=1.1
New Load.L239  bus1=239  model=1 phases=1 conn=wye kv=0.24 kW=2.684700 kvar=0.894900 Vminpu=0.1 Vmaxpu=1.1
New Load.L240  bus1=240  model=1 phases=1 conn=wye kv=0.24 kW=1.465400 kvar=0.488467 Vminpu=0.1 Vmaxpu=1.1
New Load.L241  bus1=241  model=1 phases=1 conn=wye kv=0.24 kW=2.544800 kvar=0.848267 Vminpu=0.1 Vmaxpu=1.1
New Load.L242  bus1=242  model=1 phases=1 conn=wye kv=0.24 kW=2.240900 kvar=0.746967 Vminpu=0.1 Vmaxpu=1.1
New Load.L243  bus1=243  model=1 phases=1 conn=wye kv=0.24 kW=1.556500 kvar=0.518833 Vminpu=0.1 Vmaxpu=1.1
New Load.L244  bus1=244  model=1 phases=1 conn=wye kv=0.24 kW=2.221000 kvar=0.740333 Vminpu=0.1 Vmaxpu=1.1
New Load.L245  bus1=245  model=1 phases=1 conn=wye kv=0.24 kW=2.066900 kvar=0.688967 Vminpu=0.1 Vmaxpu=1.1
New Load.L246  bus1=246  model=1 phases=1 conn=wye kv=0.24 kW=0.000000 kvar=0.000000 Vminpu=0.1 Vmaxpu=1.1
New Load.L247  bus1=247  model=1 phases=1 conn=wye kv=0.24 kW=0.000000 kvar=0.000000 Vminpu=0.1 Vmaxpu=1.1
New Load.L248  bus1=248  model=1 phases=1 conn=wye kv=0.24 kW=0.000000 kvar=0.000000 Vminpu=0.1 Vmaxpu=1.1
New Load.L249  bus1=249  model=1 phases=1 conn=wye kv=0.24 kW=0.000000 kvar=0.000000 Vminpu=0.1 Vmaxpu=1.1
New Load.L250  bus1=250  model=1 phases=1 conn=wye kv=0.24 kW=0.000000 kvar=0.000000 Vminpu=0.1 Vmaxpu=1.1
New Load.L251  bus1=251  model=1 phases=1 conn=wye kv=0.24 kW=0.000000 kvar=0.000000 Vminpu=0.1 Vmaxpu=1.1
New Load.L252  bus1=252  model=1 phases=1 conn=wye kv=0.24 kW=0.000000 kvar=0.000000 Vminpu=0.1 Vmaxpu=1.1
New Load.L253  bus1=253  model=1 phases=1 conn=wye kv=0.24 kW=0.872320 kvar=0.290773 Vminpu=0.1 Vmaxpu=1.1
New Load.L254  bus1=254  model=1 phases=1 conn=wye kv=0.24 kW=0.698000 kvar=0.232667 Vminpu=0.1 Vmaxpu=1.1
New Load.L255  bus1=255  model=1 phases=1 conn=wye kv=0.24 kW=0.732970 kvar=0.244323 Vminpu=0.1 Vmaxpu=1.1
New Load.L256  bus1=256  model=1 phases=1 conn=wye kv=0.24 kW=0.668980 kvar=0.222993 Vminpu=0.1 Vmaxpu=1.1
New Load.L257  bus1=257  model=1 phases=1 conn=wye kv=0.24 kW=0.683230 kvar=0.227743 Vminpu=0.1 Vmaxpu=1.1
New Load.L258  bus1=258  model=1 phases=1 conn=wye kv=0.24 kW=4.353000 kvar=1.451000 Vminpu=0.1 Vmaxpu=1.1
New Load.L259  bus1=259  model=1 phases=1 conn=wye kv=0.24 kW=2.977100 kvar=0.992367 Vminpu=0.1 Vmaxpu=1.1
New Load.L260  bus1=260  model=1 phases=1 conn=wye kv=0.24 kW=3.447200 kvar=1.149067 Vminpu=0.1 Vmaxpu=1.1
New Load.L261  bus1=261  model=1 phases=1 conn=wye kv=0.24 kW=1.992200 kvar=0.664067 Vminpu=0.1 Vmaxpu=1.1
New Load.L262  bus1=262  model=1 phases=1 conn=wye kv=0.24 kW=1.938000 kvar=0.646000 Vminpu=0.1 Vmaxpu=1.1
New Load.L263  bus1=263  model=1 phases=1 conn=wye kv=0.24 kW=2.133300 kvar=0.711100 Vminpu=0.1 Vmaxpu=1.1
New Load.L264  bus1=264  model=1 phases=1 conn=wye kv=0.24 kW=2.724900 kvar=0.908300 Vminpu=0.1 Vmaxpu=1.1
New Load.L265  bus1=265  model=1 phases=1 conn=wye kv=0.24 kW=0.000000 kvar=0.000000 Vminpu=0.1 Vmaxpu=1.1
New Load.L266  bus1=266  model=1 phases=1 conn=wye kv=0.24 kW=0.000000 kvar=0.000000 Vminpu=0.1 Vmaxpu=1.1
New Load.L267  bus1=267  model=1 phases=1 conn=wye kv=0.24 kW=0.000000 kvar=0.000000 Vminpu=0.1 Vmaxpu=1.1
New Load.L268  bus1=268  model=1 phases=1 conn=wye kv=0.24 kW=0.000000 kvar=0.000000 Vminpu=0.1 Vmaxpu=1.1
New Load.L269  bus1=269  model=1 phases=1 conn=wye kv=0.24 kW=0.000000 kvar=0.000000 Vminpu=0.1 Vmaxpu=1.1
New Load.L270  bus1=270  model=1 phases=1 conn=wye kv=0.24 kW=3.150900 kvar=1.050300 Vminpu=0.1 Vmaxpu=1.1
New Load.L271  bus1=271  model=1 phases=1 conn=wye kv=0.24 kW=3.086100 kvar=1.028700 Vminpu=0.1 Vmaxpu=1.1
New Load.L272  bus1=272  model=1 phases=1 conn=wye kv=0.24 kW=2.459100 kvar=0.819700 Vminpu=0.1 Vmaxpu=1.1
New Load.L273  bus1=273  model=1 phases=1 conn=wye kv=0.24 kW=2.342600 kvar=0.780867 Vminpu=0.1 Vmaxpu=1.1
New Load.L274  bus1=274  model=1 phases=1 conn=wye kv=0.24 kW=1.649800 kvar=0.549933 Vminpu=0.1 Vmaxpu=1.1
New Load.L275  bus1=275  model=1 phases=1 conn=wye kv=0.24 kW=1.673400 kvar=0.557800 Vminpu=0.1 Vmaxpu=1.1
New Load.L276  bus1=276  model=1 phases=1 conn=wye kv=0.24 kW=2.241900 kvar=0.747300 Vminpu=0.1 Vmaxpu=1.1
New Load.L277  bus1=277  model=1 phases=1 conn=wye kv=0.24 kW=3.261400 kvar=1.087133 Vminpu=0.1 Vmaxpu=1.1
New Load.L278  bus1=278  model=1 phases=1 conn=wye kv=0.24 kW=0.000000 kvar=0.000000 Vminpu=0.1 Vmaxpu=1.1
New Load.L279  bus1=279  model=1 phases=1 conn=wye kv=0.24 kW=0.000000 kvar=0.000000 Vminpu=0.1 Vmaxpu=1.1
New Load.L280  bus1=280  model=1 phases=1 conn=wye kv=0.24 kW=0.000000 kvar=0.000000 Vminpu=0.1 Vmaxpu=1.1
New Load.L281  bus1=281  model=1 phases=1 conn=wye kv=0.24 kW=0.000000 kvar=0.000000 Vminpu=0.1 Vmaxpu=1.1
New Load.L282  bus1=282  model=1 phases=1 conn=wye kv=0.24 kW=0.000000 kvar=0.000000 Vminpu=0.1 Vmaxpu=1.1