Clear

New object=circuit.ieee20
Edit "Vsource.source" bus1=1 pu=1.0488 R0=0 X0=0.00000001 phases=3 basekv=4.16 R1=0 X1=0.00000001


Redirect MyLineCodes.txt
Redirect Line.txt
Redirect loads.txt

Redirect gen.txt

!Set VoltageBases = [4.16, 2.4 ]    ! ARRAY OF VOLTAGES IN KV
!CalcVoltageBases  ! PERFORMS ZERO LOAD POWER FLOW TO ESTIMATE VOLTAGE BASES

!solve
